
**** 10/06/21 21:52:16 ******* PSpice 17.4.0 (Nov 2018) ******* ID# 0 ********

 ** Profile: "INA849_Test_Circuit-TRANS"  [ H:\OneDrive\Project\Amplifier\simulation\ina849\ina849_test_circuit-pspicefiles\ina849_te


 ****     CIRCUIT DESCRIPTION


******************************************************************************




** Creating circuit file "TRANS.cir" 
** WARNING: THIS AUTOMATICALLY GENERATED FILE MAY BE OVERWRITTEN BY SUBSEQUENT SIMULATIONS

*Libraries: 
* Profile Libraries :
* Local Libraries :
.LIB "../../../ina849.lib" 
* From [PSPICE NETLIST] section of C:\cds_spb_home\cdssetup\OrCAD_PSpiceTIPSpice_Install\17.4.0\PSpice.ini file:
.lib "nom_pspti.lib" 
.lib "nom.lib" 

*Analysis directives: 
.TRAN/OP  0 32u 0 0n 
.OPTIONS EXPAND
.OPTIONS LIBRARY
.OPTIONS ADVCONV
.OPTIONS FILEMODELSEARCH
.PROBE64 V(alias(*)) I(alias(*)) W(alias(*)) D(alias(*)) NOISE(alias(*)) 
.INC "..\INA849_Test_Circuit.net" 



**** INCLUDING INA849_Test_Circuit.net ****
* source INA849_TEST_CIRCUIT
V_Vref         REF 0 0Vdc
C_C_Vee         VEE 0  100n  TC=0,0 
E_E10         N1642181 IN- IN_NODE 0 500m
R_RLOAD         0 OUT  1k TC=0,0 
E_E9         IN+ N1642181 IN_NODE N1642181 500m
R_RG         N1641977 N1641887  6.04 TC=0,0 
C_CLOAD         0 OUT  330p  TC=0,0 
V_V1         IN_NODE 0  
+PULSE 50u -50u 1u 1n 1n 4.999u 10u
V_Vee         0 VEE 12Vdc
X_U1         IN+ IN- VCC VEE OUT REF N1641887 N1641977 INA849
C_C_Vcc         0 VCC  100n  TC=0,0 
V_Vcc         VCC 0 12Vdc
V_Vref1         N1642181 0 35uVdc

**** RESUMING TRANS.cir ****
.END

**** FROM LIBRARY ../../../ina849.lib ****
.subckt INA849 IN+ IN- VCC VEE OUT REF RG+ RG-
******************************************************
*
*
*
*
C_C13         0 N1602505  1F   
C_C14         0 N1602365  1   
C_C15         0 N1602545  1F   
C_C16         N1604573 REF  1F   
C_C17         N1604535 OUT  11F   
C_CCM1         MID INP  1F   
C_CCM2         MID INN  1F   
C_CIN_CMN         ESDN MID  7P   
C_CIN_CMP         MID ESDP  7P   
C_C_GS1         NODE1 N969492  2.6P   
C_C_GS2         NODE2 N969473  2.6P   
E_E_MID         MID 0 N1602365 0 1
G_GM1         N969492 RG- INN RG- 22.02M
G_GM2         N969473 RG+ INP RG+ 22.02M
G_G_VCC_BUFFER         VCC_B 0 VCC 0 -1
G_G_VEE_BUFFER         VEE_B 0 VEE 0 -1
I_IB         N1383401 MID DC 10PADC  
I_IOS         N1383384 MID DC 5PADC  
I_I_Q         VCC VEE DC 6.2M  
I_I_SINK1         RG- VEE_B DC 24UADC  
I_I_SINK2         RG+ VEE_B DC 24UADC  
R_RCM1         MID N1385067 R_NOISELESS 1T
R_RCM2         N1385271 MID R_NOISELESS 1T
R_RCM3         N1385582 MID R_NOISELESS 1
R_RCM4         N1385582 INP R_NOISELESS 1M
R_RCM5         MID N1386246 R_NOISELESS 1T
R_RCM6         N1386314 INN R_NOISELESS 1M
R_RCM7         N1386314 MID R_NOISELESS 1
R_RCM8         N1386438 MID R_NOISELESS 1T
R_RF1         RG- NODE1  3K TC=0,0 
R_RF2         RG+ NODE2  3K TC=0,0 
R_RFN         N1604535 OUT  5.0000316K TC=0,0 
R_RFP         N1604573 REF  5K TC=0,0 
R_RIN11         ESDP IN+ R_NOISELESS 10M
R_RIN12         ESDN IN- R_NOISELESS 10M
R_RIN13         N1384907 N1384032 R_NOISELESS 10M
R_RIN14         N1386364 N1383384 R_NOISELESS 10M
R_RIN_CMN         MID ESDN R_NOISELESS 1T
R_RIN_CMP         ESDP MID R_NOISELESS 1T
R_RIN_IN         NODE1 N1604535  5K TC=0,0 
R_RIN_NIN         NODE2 N1604573  5K TC=0,0 
R_R_GS1         N969492 VCC_B  41.67K  
R_R_GS2         N969473 VCC_B  41.67K  
R_R_MID1         VCC_B 0 R_NOISELESS 1
R_R_MID2         VEE_B 0 R_NOISELESS 1
R_R_MID3         VCC_B N1602505 R_NOISELESS 1M
R_R_MID4         N1602545 VEE_B R_NOISELESS 1M
R_R_MID5         N1602505 N1602365 R_NOISELESS 1MEG
R_R_MID6         N1602365 N1602545 R_NOISELESS 1MEG
R_R_MID7         N1602365 0 R_NOISELESS 1T
V_VB         VCC_B N969449 1VDC
V_VCM_MAX         N1385067 VCC_B -2.5VDC
V_VCM_MAX1         N1386246 VCC_B -2.5VDC
V_VCM_MIN         N1385271 VEE_B 2.5VDC
V_VCM_MIN1         N1386438 VEE_B 2.5VDC
X_INA849_INAMP0 N969449 N969492 MID VCC VEE NODE1 INA849_INAMP  
X_INA849_INAMP1 N969449 N969473 MID VCC VEE NODE2 INA849_INAMP  
X_INA849_OUTAMP N1604573 N1604535 VCC VCC_B VEE VEE_B MID OUT INA849_OUTAMP  
X_U1         ESDP N1383401 VNSE1_INA849 PARAMS:  FLW=100M NLF=9 NVR=0.7
X_U10         N1384907 MID N1385582 MID N1385067 N1385271 VCM_CLAMP_INA849 PARAMS: 
+  GAIN=1
X_U11         N1386364 MID N1386314 MID N1386246 N1386438 VCM_CLAMP_INA849 PARAMS: 
+  GAIN=1
X_U12         RG- VCC VEE ESD_OUT_INA849
X_U13         RG+ VCC VEE ESD_OUT_INA849
X_U14         REF VCC VEE ESD_OUT_INA849
X_U15         OUT VCC VEE ESD_OUT_INA849
X_U16         ESDN N1383384 VNSE1_INA849 PARAMS:  FLW=100M NLF=9 NVR=0.7
X_U3         ESDP VCC VEE ESD_OUT_INA849
X_U4         ESDN VCC VEE ESD_OUT_INA849
X_U7         MID N1383401 FEMT2_INA849 PARAMS: FLWF=0.1 NLFF=17K NVRF=1.06K
X_U8         N1383384 MID FEMT2_INA849 PARAMS: FLWF=0.1 NLFF=17K NVRF=1.06K
X_U9         N1384032 N1383401 VOS_DRIFT_INA849 PARAMS:  DC=10U POL=1 DRIFT=100N
.ENDS  INA849


**** EXPANSION OF SUBCIRCUIT X_U1 ****
X_U1.C_C13 0 X_U1.N1602505 1F
X_U1.C_C14 0 X_U1.N1602365 1
X_U1.C_C15 0 X_U1.N1602545 1F
X_U1.C_C16 X_U1.N1604573 REF 1F
X_U1.C_C17 X_U1.N1604535 OUT 11F
X_U1.C_CCM1 X_U1.MID X_U1.INP 1F
X_U1.C_CCM2 X_U1.MID X_U1.INN 1F
X_U1.C_CIN_CMN X_U1.ESDN X_U1.MID 7P
X_U1.C_CIN_CMP X_U1.MID X_U1.ESDP 7P
X_U1.C_C_GS1 X_U1.NODE1 X_U1.N969492 2.6P
X_U1.C_C_GS2 X_U1.NODE2 X_U1.N969473 2.6P
X_U1.E_E_MID X_U1.MID 0 X_U1.N1602365 0 1
X_U1.G_GM1 X_U1.N969492 N1641977 X_U1.INN N1641977 22.02M
X_U1.G_GM2 X_U1.N969473 N1641887 X_U1.INP N1641887 22.02M
X_U1.G_G_VCC_BUFFER X_U1.VCC_B 0 VCC 0 -1
X_U1.G_G_VEE_BUFFER X_U1.VEE_B 0 VEE 0 -1
X_U1.I_IB X_U1.N1383401 X_U1.MID DC 10PADC
X_U1.I_IOS X_U1.N1383384 X_U1.MID DC 5PADC
X_U1.I_I_Q VCC VEE DC 6.2M
X_U1.I_I_SINK1 N1641977 X_U1.VEE_B DC 24UADC
X_U1.I_I_SINK2 N1641887 X_U1.VEE_B DC 24UADC
X_U1.R_RCM1 X_U1.MID X_U1.N1385067 X_U1.R_NOISELESS 1T
X_U1.R_RCM2 X_U1.N1385271 X_U1.MID X_U1.R_NOISELESS 1T
X_U1.R_RCM3 X_U1.N1385582 X_U1.MID X_U1.R_NOISELESS 1
X_U1.R_RCM4 X_U1.N1385582 X_U1.INP X_U1.R_NOISELESS 1M
X_U1.R_RCM5 X_U1.MID X_U1.N1386246 X_U1.R_NOISELESS 1T
X_U1.R_RCM6 X_U1.N1386314 X_U1.INN X_U1.R_NOISELESS 1M
X_U1.R_RCM7 X_U1.N1386314 X_U1.MID X_U1.R_NOISELESS 1
X_U1.R_RCM8 X_U1.N1386438 X_U1.MID X_U1.R_NOISELESS 1T
X_U1.R_RF1 N1641977 X_U1.NODE1 3K TC 0 0
X_U1.R_RF2 N1641887 X_U1.NODE2 3K TC 0 0
X_U1.R_RFN X_U1.N1604535 OUT 5.0000316K TC 0 0
X_U1.R_RFP X_U1.N1604573 REF 5K TC 0 0
X_U1.R_RIN11 X_U1.ESDP IN+ X_U1.R_NOISELESS 10M
X_U1.R_RIN12 X_U1.ESDN IN- X_U1.R_NOISELESS 10M
X_U1.R_RIN13 X_U1.N1384907 X_U1.N1384032 X_U1.R_NOISELESS 10M
X_U1.R_RIN14 X_U1.N1386364 X_U1.N1383384 X_U1.R_NOISELESS 10M
X_U1.R_RIN_CMN X_U1.MID X_U1.ESDN X_U1.R_NOISELESS 1T
X_U1.R_RIN_CMP X_U1.ESDP X_U1.MID X_U1.R_NOISELESS 1T
X_U1.R_RIN_IN X_U1.NODE1 X_U1.N1604535 5K TC 0 0
X_U1.R_RIN_NIN X_U1.NODE2 X_U1.N1604573 5K TC 0 0
X_U1.R_R_GS1 X_U1.N969492 X_U1.VCC_B 41.67K
X_U1.R_R_GS2 X_U1.N969473 X_U1.VCC_B 41.67K
X_U1.R_R_MID1 X_U1.VCC_B 0 X_U1.R_NOISELESS 1
X_U1.R_R_MID2 X_U1.VEE_B 0 X_U1.R_NOISELESS 1
X_U1.R_R_MID3 X_U1.VCC_B X_U1.N1602505 X_U1.R_NOISELESS 1M
X_U1.R_R_MID4 X_U1.N1602545 X_U1.VEE_B X_U1.R_NOISELESS 1M
X_U1.R_R_MID5 X_U1.N1602505 X_U1.N1602365 X_U1.R_NOISELESS 1MEG
X_U1.R_R_MID6 X_U1.N1602365 X_U1.N1602545 X_U1.R_NOISELESS 1MEG
X_U1.R_R_MID7 X_U1.N1602365 0 X_U1.R_NOISELESS 1T
X_U1.V_VB X_U1.VCC_B X_U1.N969449 1VDC
X_U1.V_VCM_MAX X_U1.N1385067 X_U1.VCC_B -2.5VDC
X_U1.V_VCM_MAX1 X_U1.N1386246 X_U1.VCC_B -2.5VDC
X_U1.V_VCM_MIN X_U1.N1385271 X_U1.VEE_B 2.5VDC
X_U1.V_VCM_MIN1 X_U1.N1386438 X_U1.VEE_B 2.5VDC
X_U1.X_INA849_INAMP0 X_U1.N969449 X_U1.N969492 X_U1.MID VCC VEE
+ X_U1.NODE1 INA849_INAMP
X_U1.X_INA849_INAMP1 X_U1.N969449 X_U1.N969473 X_U1.MID VCC VEE
+ X_U1.NODE2 INA849_INAMP
X_U1.X_INA849_OUTAMP X_U1.N1604573 X_U1.N1604535 VCC X_U1.VCC_B VEE
+ X_U1.VEE_B X_U1.MID OUT INA849_OUTAMP
X_U1.X_U1 PARAMS X_U1.FLW 100M X_U1.NLF 9 X_U1.NVR 0.7 X_U1.ESDP
+ X_U1.N1383401 VNSE1_INA849
X_U1.X_U10 PARAMS X_U10.GAIN 1 X_U1.N1384907 X_U1.MID X_U1.N1385582
+ X_U1.MID X_U1.N1385067 X_U1.N1385271 VCM_CLAMP_INA849
X_U1.X_U11 PARAMS X_U11.GAIN 1 X_U1.N1386364 X_U1.MID X_U1.N1386314
+ X_U1.MID X_U1.N1386246 X_U1.N1386438 VCM_CLAMP_INA849
X_U1.X_U12 N1641977 VCC VEE ESD_OUT_INA849
X_U1.X_U13 N1641887 VCC VEE ESD_OUT_INA849
X_U1.X_U14 REF VCC VEE ESD_OUT_INA849
X_U1.X_U15 OUT VCC VEE ESD_OUT_INA849
X_U1.X_U16 PARAMS X_U16.FLW 100M X_U16.NLF 9 X_U16.NVR 0.7 X_U1.ESDN
+ X_U1.N1383384 VNSE1_INA849
X_U1.X_U3 X_U1.ESDP VCC VEE ESD_OUT_INA849
X_U1.X_U4 X_U1.ESDN VCC VEE ESD_OUT_INA849
X_U1.X_U7 PARAMS X_U7.FLWF 0.1 X_U7.NLFF 17K X_U7.NVRF 1.06K X_U1.MID
+ X_U1.N1383401 FEMT2_INA849
X_U1.X_U8 PARAMS X_U8.FLWF 0.1 X_U8.NLFF 17K X_U8.NVRF 1.06K
+ X_U1.N1383384 X_U1.MID FEMT2_INA849
X_U1.X_U9 PARAMS X_U9.DC 10U X_U9.POL 1 X_U9.DRIFT 100N X_U1.N1384032
+ X_U1.N1383401 VOS_DRIFT_INA849

**** FROM LIBRARY ../../../ina849.lib ****
.MODEL R_NOISELESS RES (T_ABS=-273.15)

.subckt INA849_INAMP INP_IN+ INP_IN- MID VCC VEE INP_OUT
******************************************************
*
C_C10         N256245 N256255  787.9N   
C_C11         MID N257223  43.6P   
C_C21         N256265 N256273  3.577P   
C_C22         MID N257277  83F   
C_C25         CLAMP1 MID  8.204N   
C_C28         MID N957967  83F   
C_C_VIMON11   VIMON1 MID  1P   
G_G12         VSENSE1 MID CLAMP1 MID -1M
G_G15         N256245 MID VSENSE1 N256819 -89
G_G16         N256555 MID N256255 MID -3.505
G_G17         N256265 MID N256573 MID -1
G_G26         N256623 MID N256273 MID -1.022
G_G27         N256659 MID N256643 MID -1
G_G55         N256703 MID N957915 MID -1
R_R136        MID VSENSE1 R_NOISELESS 1K
R_R143        N957915 N256659 R_NOISELESS 9.8K
R_R144        N957967 N957915 R_NOISELESS 10K
R_R34         N256255 N256245 R_NOISELESS 10K
R_R35         MID N256245 R_NOISELESS 1
R_R36         MID N256255 R_NOISELESS 3.992K
R_R38         N256573 N256555 R_NOISELESS 224.1
R_R39         N257223 N256573 R_NOISELESS 10K
R_R41         MID N256265 R_NOISELESS 1
R_R46         MID N256555 R_NOISELESS 1
R_R67         N256273 N256265 R_NOISELESS 10K
R_R68         MID N256623 R_NOISELESS 1
R_R69         MID N256273 R_NOISELESS 445K
R_R70         N256643 N256623 R_NOISELESS 9.8K
R_R71         N257277 N256643 R_NOISELESS 10K
R_R72         MID N256659 R_NOISELESS 1
R_R75         MID N256703 R_NOISELESS 1
R_R78         MID N261786 R_NOISELESS 1MEG
R_R79         MID CLAMP1 R_NOISELESS 1MEG
R_RDUMMY1     MID N256819 R_NOISELESS 575
R_RIN1        N928127 INP_IN+ R_NOISELESS 10M
R_RIN2        N928131 INP_IN- R_NOISELESS 10M
R_RX1         N256819 N256703 R_NOISELESS 5.75K
R_R_VIMON11   N970369 VIMON1 R_NOISELESS 100
R_R_VIMON12   MID N970369 R_NOISELESS 1T
X_H_IMON11    N256819 INP_OUT N970369 MID INA849_INAMP_H_IMON11 
X_U2          N928127 N928131 MID N261786 AOL_1_INA849_INAMP PARAMS:  GAIN=1E-4 IPOS=.5
+  INEG=-.5
X_U3          N261786 MID MID CLAMP1 AOL_2_INA849_INAMP PARAMS:  GAIN=8.848E-3 IPOS=4 INEG=-4
X_U_INAMP_IQN         MID VIMON1 VEE MID IQ_SRC_INA849_INAMP PARAMS:  GAIN=1E-3
X_U_INAMP_IQP         VIMON1 MID MID VCC IQ_SRC_INA849_INAMP PARAMS:  GAIN=1E-3
.ENDS  INA849_INAMP

.subckt INA849_OUTAMP OUP_IN+ OUP_IN- VCC VCC_B VEE VEE_B MID OUP_OUT
******************************************************
*
*
*
C_C106         N1661226 MID  1F   
C_C107         MID N1661626  1F   
C_C108         N1661462 MID  1P   
C_C109         MID N1661680  1P   
C_C110         N1663763 MID  1P   
C_C111         MID N1664091  1P   
C_C112         N1663947 MID  1P   
C_C113         MID N1664179  1P   
C_C114         VCLP MID  1P   
C_C115         N1939474 N1939484  418U   
C_C116         N1939514 N1939524  324F   
C_C117         N1939534 N1939542  31.83F   
C_C118         N1939552 N1939562  31.83F   
C_C119         N1939572 N1939580  31.83F   
C_C120         MID N1940758  2.49P   
C_C121         MID N1940790  2.49P   
C_C122         MID N1940844  26.98F   
C_C123         MID N1940876  26.98F   
C_C13         N1939494 N1939504  723N   
C_C29         N1428789 N1428799  677F   
C_C30         N1428809 N1428819  677F   
C_C33         CLAMP MID  900N   
C_C34         MID N1428991  13.5F   
C_CCM2         MID N995776  1F   
C_CIN2_CMN         N953203 MID  1P   
C_CIN2_CMP         MID N953165  1P   
C_CIN2_DIFF         N953165 N953203  1P   
C_CP1         N1389051 N1389061  144.7P   
C_CP2         MID N1389297  26.53F   
C_CP3         N1388079 N1388089  41.88P   
C_CP4         N1388099 N1388109  13.26P   
C_CP5         N1388119 N1388129  13.26P   
C_CP6         MID N1388615  79.58F   
C_CP7         MID N1388629  79.58F   
C_C_VIMON         VIMON MID  1P   
C_C_VOUTS         VOUT_S MID  1P   
E_E2         N1696516 MID CL_CLAMP_OP MID 1
E_E4         N1403176 MID OUP_OUT MID 1
G_G18         N1939722 MID N1939504 MID -114.5
G_G53         VCC_CLP MID N1661226 MID -1M
G_G57         N1394772 N1394706 PSRR+ PSRR- -1M
G_G58         CLAW_CLAMP_OP MID N1428819 MID -1M
G_G59         CL_CLAMP_OP MID CLAW_CLAMP_OP MID -1M
G_G60         N1428789 MID N1428991 MID -6.381
G_G61         N1428809 MID N1428799 MID -6.381
G_G64         VSENSE MID CLAMP MID -1E-3
G_G65         N1428991 MID VSENSE MID -1E-6
G_G66         VEE_CLP MID N1661626 MID -1M
G_G69         N1939474 MID CL_CLAMP_OP OUT_NODE -89
G_G70         N1939494 MID N1939484 MID -1.316K
G_G71         N1939792 MID N1939524 MID -1.63
G_G72         N1939552 MID N1939542 MID -20
G_G73         N1939572 MID N1939562 MID -20
G_G74         N1939746 MID N1939730 MID -1
G_G75         N1939514 MID N1939754 MID -1
G_G76         N1939816 MID N1939800 MID -1
G_G77         N1939534 MID N1939824 MID -1
G_G_PSRNEG         N1388079 MID VEE_B MID -10.53M
G_G_PSRNEG1         N1388099 MID N1388089 MID -1
G_G_PSRNEG2         N1388119 MID N1388109 MID -16.67
G_G_PSRNEG3         N1388139 MID N1388129 MID -16.67
G_G_PSRNEG4         N1388167 MID N1388149 MID -1
G_G_PSRNEG5         PSRR- MID N1388177 MID -1
G_G_PSRPOS         N1389051 MID VCC_B MID -1.818
G_G_PSRPOS1         N1389071 MID N1389061 MID -1
G_G_PSRPOS2         PSRR+ MID N1389081 MID -1
R_R120         N1661302 VCC_B R_NOISELESS 1K
R_R121         VEE_B N1661612 R_NOISELESS 1K
R_R122         N1661226 N1661302 R_NOISELESS 1
R_R123         N1661626 N1661612 R_NOISELESS 1
R_R124         VCC_CLP MID R_NOISELESS 1K
R_R125         MID VEE_CLP R_NOISELESS 1K
R_R126         VCC_CLP MID R_NOISELESS 1T
R_R127         MID VEE_CLP R_NOISELESS 1T
R_R128         N1661466 MID R_NOISELESS 1
R_R129         MID N1661666 R_NOISELESS 1
R_R130         N1661462 N1661466 R_NOISELESS 1
R_R131         N1661680 N1661666 R_NOISELESS 1
R_R142         MID N1664165 R_NOISELESS 1
R_R143         MID N1664265 R_NOISELESS 1G
R_R145         N1394772 N1394706 R_NOISELESS 1K
R_R146         MID CLAW_CLAMP_OP R_NOISELESS 1K
R_R147         MID CL_CLAMP_OP R_NOISELESS 1K
R_R148         N1428799 N1428789 R_NOISELESS 10K
R_R149         N1428819 N1428809 R_NOISELESS 10K
R_R152         MID N1428789 R_NOISELESS 1
R_R153         MID N1428809 R_NOISELESS 1
R_R156         N1428991 MID R_NOISELESS 1E6
R_R157         MID N1428799 R_NOISELESS 1.858K
R_R158         MID N1428819 R_NOISELESS 1.858K
R_R161         MID VSENSE R_NOISELESS 1E3
R_R162         N1663647 MID R_NOISELESS 1T
R_R163         N1663665 MID R_NOISELESS 1G
R_R164         N1663805 MID R_NOISELESS 1
R_R165         N1663951 MID R_NOISELESS 1
R_R166         N1663763 N1663805 R_NOISELESS 1
R_R167         N1663947 N1663951 R_NOISELESS 1
R_R168         N1664091 N1664077 R_NOISELESS 1
R_R169         N1664179 N1664165 R_NOISELESS 1
R_R170         MID N1664077 R_NOISELESS 1
R_R171         MID N1664201 R_NOISELESS 1T
R_R172         N1939730 N1939722 R_NOISELESS 25.56K
R_R173         N1939754 N1939746 R_NOISELESS 25.56K
R_R174         N1939800 N1939792 R_NOISELESS 49K
R_R175         N1939824 N1939816 R_NOISELESS 49K
R_R176         N1939484 N1939474 R_NOISELESS 10K
R_R177         N1939524 N1939514 R_NOISELESS 10K
R_R178         N1939542 N1939534 R_NOISELESS 10K
R_R179         N1939562 N1939552 R_NOISELESS 10K
R_R180         N1939580 N1939572 R_NOISELESS 10K
R_R181         N1940758 N1939730 R_NOISELESS 10K
R_R182         N1940790 N1939754 R_NOISELESS 10K
R_R183         N1940844 N1939800 R_NOISELESS 10K
R_R184         N1940876 N1939824 R_NOISELESS 10K
R_R185         MID N1939722 R_NOISELESS 1
R_R186         MID N1939792 R_NOISELESS 1
R_R187         MID N1939816 R_NOISELESS 1
R_R188         MID N1939534 R_NOISELESS 1
R_R189         MID N1939552 R_NOISELESS 1
R_R190         MID N1939572 R_NOISELESS 1
R_R191         MID N1940296 R_NOISELESS 1
R_R192         MID N1939474 R_NOISELESS 1
R_R193         MID N1939484 R_NOISELESS 7.606
R_R194         MID N1939524 R_NOISELESS 15.81K
R_R195         MID N1939542 R_NOISELESS 526.3
R_R196         MID N1939562 R_NOISELESS 526.3
R_R197         MID N1939580 R_NOISELESS 526.3
R_R198         MID N1939746 R_NOISELESS 1
R_R199         MID N1939514 R_NOISELESS 1
R_R37         MID N1939494 R_NOISELESS 1
R_R44         N1939504 N1939494 R_NOISELESS 10K
R_R45         MID N1939504 R_NOISELESS 88.07
R_R84         N1696516 VCLP R_NOISELESS 100
R_RCM5         MID N1401129 R_NOISELESS 1T
R_RCM6         N1401213 N995776 R_NOISELESS 1M
R_RCM7         N1401213 MID R_NOISELESS 1
R_RCM8         N1401349 MID R_NOISELESS 1T
R_RDUMMY         MID OUT_NODE R_NOISELESS 50K
R_RIN2_CMN         MID N953203 R_NOISELESS 1T
R_RIN2_CMP         N953165 MID R_NOISELESS 1T
R_RIN3         N953165 OUP_IN+ R_NOISELESS 10M
R_RIN4         N953203 OUP_IN- R_NOISELESS 10M
R_RO1         MID N261787 R_NOISELESS 1MEG
R_RO2         MID CLAMP R_NOISELESS 1MEG
R_RP1         N1389061 N1389051 R_NOISELESS 100MEG
R_RP10         N1388129 MID R_NOISELESS 638.3
R_RP11         N1388139 N1388149 R_NOISELESS 90K
R_RP12         N1388149 N1388615 R_NOISELESS 10K
R_RP13         N1388167 N1388177 R_NOISELESS 90K
R_RP14         N1388177 N1388629 R_NOISELESS 10K
R_RP2         N1389061 MID R_NOISELESS 55
R_RP3         N1389071 N1389081 R_NOISELESS 290K
R_RP4         N1389081 N1389297 R_NOISELESS 10K
R_RP5         N1388089 N1388079 R_NOISELESS 100MEG
R_RP6         N1388089 MID R_NOISELESS 9.5K
R_RP7         N1388109 N1388099 R_NOISELESS 10K
R_RP8         N1388109 MID R_NOISELESS 638.3
R_RP9         N1388129 N1388119 R_NOISELESS 10K
R_RSRC         MID N1389051 R_NOISELESS 1
R_RSRC1         MID N1389071 R_NOISELESS 1
R_RSRC2         MID PSRR+ R_NOISELESS 1
R_RSRC3         MID N1388079 R_NOISELESS 1
R_RSRC4         MID N1388099 R_NOISELESS 1
R_RSRC5         MID N1388119 R_NOISELESS 1
R_RSRC6         MID N1388139 R_NOISELESS 1
R_RSRC7         MID N1388167 R_NOISELESS 1
R_RSRC8         MID PSRR- R_NOISELESS 1
R_RX         OUT_NODE N1940296 R_NOISELESS 500K
R_R_VIMON21         MID N989282 R_NOISELESS 1T
R_R_VIMON22         N989282 VIMON R_NOISELESS 100
R_VOUTS1         MID N1403176 R_NOISELESS 1T
R_VOUTS2         VOUT_S N1403176 R_NOISELESS 100
V_VCM_MAX2         N1401129 VCC_B -2VDC
V_VCM_MIN2         N1401349 VEE_B 2VDC
V_V_GRN         N1664265 MID -220VDC
V_V_GRP         N1663665 MID 220VDC
V_V_ISCN         N1664201 MID -34VDC
V_V_ISCP         N1663647 MID 34VDC
X_H_IMON    OUT_NODE OUP_OUT N989282 MID OUTAMP_BLOCK_DC_H_IMON_INA849_OUTAMP 
X_U1         N953165 N2052331 VNSE1_INA849_OUTAMP PARAMS:  FLW=150M NLF=524.25 NVR=21
X_U10         N1394772 MID N1401213 MID N1401129 N1401349 VCM_CLAMP_INA849_OUTAMP PARAMS: 
+  GAIN=1
X_U11         VIMON MID N1661302 VCC_B CLAWP_INA849_OUTAMP
X_U12         MID VIMON VEE_B N1661612 CLAWN_INA849_OUTAMP
X_U13         VCC_CLP VEE_CLP VOUT_S MID N1661466 N1661666 CLAMP_AMP_LO_INA849_OUTAMP PARAMS:
+   G=25
X_U14         N1661462 N1661680 CLAW_CLAMP_OP MID CLAW_SRC_INA849_OUTAMP PARAMS:  GAIN=1
+  IPOS=500M INEG=-500M
X_U15         N1663647 N1664201 VOUT_S MID N1663805 N1664077 CLAMP_AMP_LO_INA849_OUTAMP
+  PARAMS:  G=25
X_U16         N1663763 N1664091 CL_CLAMP_OP MID CL_SRC_INA849_OUTAMP PARAMS:  GAIN=1 IPOS=1
+  INEG=-1
X_U17         N1663665 N1664265 VSENSE MID N1663951 N1664165 CLAMP_AMP_HI_INA849_OUTAMP
+  PARAMS:  G=500
X_U18         N1663947 N1664179 CLAMP MID GR_SRC_INA849_OUTAMP PARAMS:  GAIN=1 IPOS=70
+  INEG=-70
X_U19         N2052331 N1394706 VOS_DRIFT_INA849_OUTAMP PARAMS:  DC=5U POL=1 DRIFT=1U
X_U20         OUP_OUT VCC VEE ESD_OUT_INA849_OUTAMP
X_U23         N1939580 MID MID N1940296 ZO_SRC_INA849_OUTAMP PARAMS:  GAIN=20 IPOS=35E3
+  INEG=-35E3
X_U4         N995776 N953203 MID N261787 AOL_1_INA849_OUTAMP PARAMS:  GAIN=1E-4 IPOS=.5
+  INEG=-.5
X_U5         N261787 MID MID CLAMP AOL_2_INA849_OUTAMP PARAMS:  GAIN=6.128 IPOS=31.7
+  INEG=-31.7
X_U_OUTAMP_IQN         MID VIMON VEE MID IQ_SRC_INA849_OUTAMP PARAMS:  GAIN=1E-3
X_U_OUTAMP_IQP         VIMON MID MID VCC IQ_SRC_INA849_OUTAMP PARAMS:  GAIN=1E-3
.ENDS  INA849_OUTAMP

.SUBCKT VNSE1_INA849 1 2 PARAMS: FLW=1 NLF=120 NVR=18
.PARAM GLF={PWR(FLW,0.25)*NLF/1164}
.PARAM RNV={1.184*PWR(NVR,2)}
.MODEL DVN D KF={PWR(FLW,0.5)/1E11} IS=1.0E-16
I1 0 7 10E-3
I2 0 8 10E-3
D1 7 0 DVN
D2 8 0 DVN
E1 3 6 7 8 {GLF}
R1 3 0 1E9
R2 3 0 1E9
R3 3 6 1E9
E2 6 4 5 0 10
R4 5 0 {RNV}
R5 5 0 {RNV}
R6 3 4 1E9
R7 4 0 1E9
E3 1 2 3 4 1
.ENDS  VNSE1_INA849

.SUBCKT VCM_CLAMP_INA849 VIN+ VIN- IOUT- IOUT+ VP+ VP- PARAMS: GAIN=1
G1 IOUT+ IOUT- VALUE={LIMIT(GAIN*V(VIN+,VIN-),V(VP-,VIN-), V(VP+,VIN-))}
.ENDS  VCM_CLAMP_INA849

.SUBCKT ESD_OUT_INA849 OUT VCC VEE
.MODEL ESD_SW VSWITCH(RON=50 ROFF=1E12 VON=500E-3 VOFF=100E-3)
S1 VCC OUT OUT VCC ESD_SW
S2 OUT VEE VEE OUT ESD_SW
.ENDS  ESD_OUT_INA849

.SUBCKT FEMT2_INA849  1 2 PARAMS: NLFF = 0.1 FLWF = 0.001 NVRF = 0.1
.PARAM GLFF={PWR(FLWF,0.25)*NLFF/1164}
.PARAM RNVF={1.184*PWR(NVRF,2)}
.MODEL DVNF D KF={PWR(FLWF,0.5)/1E11} IS=1.0E-16
I1 0 7 10E-3
I2 0 8 10E-3
D1 7 0 DVNF
D2 8 0 DVNF
E1 3 6 7 8 {GLFF}
R1 3 0 1E9
R2 3 0 1E9
R3 3 6 1E9
E2 6 4 5 0 10
R4 5 0 {RNVF}
R5 5 0 {RNVF}
R6 3 4 1E9
R7 4 0 1E9
G1 1 2 3 4 1E-6
C1 1 0 1E-15
C2 2 0 1E-15
C3 1 2 1E-15
.ENDS  FEMT2_INA849

.SUBCKT VOS_DRIFT_INA849 VOS+ VOS- PARAMS: DC=496.4E-6 POL=1 DRIFT=2E-06
E1 VOS+ VOS- VALUE={DC+POL*DRIFT*(TEMP-27)}
.ENDS  VOS_DRIFT_INA849


**** EXPANSION OF SUBCIRCUIT X_U1.X_INA849_INAMP0 ****
X_U1.X_INA849_INAMP0.C_C10 X_U1.X_INA849_INAMP0.N256245
+ X_U1.X_INA849_INAMP0.N256255 787.9N
X_U1.X_INA849_INAMP0.C_C11 X_U1.MID X_U1.X_INA849_INAMP0.N257223
+ 43.6P
X_U1.X_INA849_INAMP0.C_C21 X_U1.X_INA849_INAMP0.N256265
+ X_U1.X_INA849_INAMP0.N256273 3.577P
X_U1.X_INA849_INAMP0.C_C22 X_U1.MID X_U1.X_INA849_INAMP0.N257277 83F
X_U1.X_INA849_INAMP0.C_C25 X_U1.X_INA849_INAMP0.CLAMP1 X_U1.MID
+ 8.204N
X_U1.X_INA849_INAMP0.C_C28 X_U1.MID X_U1.X_INA849_INAMP0.N957967 83F
X_U1.X_INA849_INAMP0.C_C_VIMON11 X_U1.X_INA849_INAMP0.VIMON1 X_U1.MID
+ 1P
X_U1.X_INA849_INAMP0.G_G12 X_U1.X_INA849_INAMP0.VSENSE1 X_U1.MID
+ X_U1.X_INA849_INAMP0.CLAMP1 X_U1.MID -1M
X_U1.X_INA849_INAMP0.G_G15 X_U1.X_INA849_INAMP0.N256245 X_U1.MID
+ X_U1.X_INA849_INAMP0.VSENSE1 X_U1.X_INA849_INAMP0.N256819 -89
X_U1.X_INA849_INAMP0.G_G16 X_U1.X_INA849_INAMP0.N256555 X_U1.MID
+ X_U1.X_INA849_INAMP0.N256255 X_U1.MID -3.505
X_U1.X_INA849_INAMP0.G_G17 X_U1.X_INA849_INAMP0.N256265 X_U1.MID
+ X_U1.X_INA849_INAMP0.N256573 X_U1.MID -1
X_U1.X_INA849_INAMP0.G_G26 X_U1.X_INA849_INAMP0.N256623 X_U1.MID
+ X_U1.X_INA849_INAMP0.N256273 X_U1.MID -1.022
X_U1.X_INA849_INAMP0.G_G27 X_U1.X_INA849_INAMP0.N256659 X_U1.MID
+ X_U1.X_INA849_INAMP0.N256643 X_U1.MID -1
X_U1.X_INA849_INAMP0.G_G55 X_U1.X_INA849_INAMP0.N256703 X_U1.MID
+ X_U1.X_INA849_INAMP0.N957915 X_U1.MID -1
X_U1.X_INA849_INAMP0.R_R136 X_U1.MID X_U1.X_INA849_INAMP0.VSENSE1
+ X_U1.X_INA849_INAMP0.R_NOISELESS 1K
X_U1.X_INA849_INAMP0.R_R143 X_U1.X_INA849_INAMP0.N957915
+ X_U1.X_INA849_INAMP0.N256659 X_U1.X_INA849_INAMP0.R_NOISELESS 9.8K
X_U1.X_INA849_INAMP0.R_R144 X_U1.X_INA849_INAMP0.N957967
+ X_U1.X_INA849_INAMP0.N957915 X_U1.X_INA849_INAMP0.R_NOISELESS 10K
X_U1.X_INA849_INAMP0.R_R34 X_U1.X_INA849_INAMP0.N256255
+ X_U1.X_INA849_INAMP0.N256245 X_U1.X_INA849_INAMP0.R_NOISELESS 10K
X_U1.X_INA849_INAMP0.R_R35 X_U1.MID X_U1.X_INA849_INAMP0.N256245
+ X_U1.X_INA849_INAMP0.R_NOISELESS 1
X_U1.X_INA849_INAMP0.R_R36 X_U1.MID X_U1.X_INA849_INAMP0.N256255
+ X_U1.X_INA849_INAMP0.R_NOISELESS 3.992K
X_U1.X_INA849_INAMP0.R_R38 X_U1.X_INA849_INAMP0.N256573
+ X_U1.X_INA849_INAMP0.N256555 X_U1.X_INA849_INAMP0.R_NOISELESS 224.1
X_U1.X_INA849_INAMP0.R_R39 X_U1.X_INA849_INAMP0.N257223
+ X_U1.X_INA849_INAMP0.N256573 X_U1.X_INA849_INAMP0.R_NOISELESS 10K
X_U1.X_INA849_INAMP0.R_R41 X_U1.MID X_U1.X_INA849_INAMP0.N256265
+ X_U1.X_INA849_INAMP0.R_NOISELESS 1
X_U1.X_INA849_INAMP0.R_R46 X_U1.MID X_U1.X_INA849_INAMP0.N256555
+ X_U1.X_INA849_INAMP0.R_NOISELESS 1
X_U1.X_INA849_INAMP0.R_R67 X_U1.X_INA849_INAMP0.N256273
+ X_U1.X_INA849_INAMP0.N256265 X_U1.X_INA849_INAMP0.R_NOISELESS 10K
X_U1.X_INA849_INAMP0.R_R68 X_U1.MID X_U1.X_INA849_INAMP0.N256623
+ X_U1.X_INA849_INAMP0.R_NOISELESS 1
X_U1.X_INA849_INAMP0.R_R69 X_U1.MID X_U1.X_INA849_INAMP0.N256273
+ X_U1.X_INA849_INAMP0.R_NOISELESS 445K
X_U1.X_INA849_INAMP0.R_R70 X_U1.X_INA849_INAMP0.N256643
+ X_U1.X_INA849_INAMP0.N256623 X_U1.X_INA849_INAMP0.R_NOISELESS 9.8K
X_U1.X_INA849_INAMP0.R_R71 X_U1.X_INA849_INAMP0.N257277
+ X_U1.X_INA849_INAMP0.N256643 X_U1.X_INA849_INAMP0.R_NOISELESS 10K
X_U1.X_INA849_INAMP0.R_R72 X_U1.MID X_U1.X_INA849_INAMP0.N256659
+ X_U1.X_INA849_INAMP0.R_NOISELESS 1
X_U1.X_INA849_INAMP0.R_R75 X_U1.MID X_U1.X_INA849_INAMP0.N256703
+ X_U1.X_INA849_INAMP0.R_NOISELESS 1
X_U1.X_INA849_INAMP0.R_R78 X_U1.MID X_U1.X_INA849_INAMP0.N261786
+ X_U1.X_INA849_INAMP0.R_NOISELESS 1MEG
X_U1.X_INA849_INAMP0.R_R79 X_U1.MID X_U1.X_INA849_INAMP0.CLAMP1
+ X_U1.X_INA849_INAMP0.R_NOISELESS 1MEG
X_U1.X_INA849_INAMP0.R_RDUMMY1 X_U1.MID X_U1.X_INA849_INAMP0.N256819
+ X_U1.X_INA849_INAMP0.R_NOISELESS 575
X_U1.X_INA849_INAMP0.R_RIN1 X_U1.X_INA849_INAMP0.N928127 X_U1.N969449
+ X_U1.X_INA849_INAMP0.R_NOISELESS 10M
X_U1.X_INA849_INAMP0.R_RIN2 X_U1.X_INA849_INAMP0.N928131 X_U1.N969492
+ X_U1.X_INA849_INAMP0.R_NOISELESS 10M
X_U1.X_INA849_INAMP0.R_RX1 X_U1.X_INA849_INAMP0.N256819
+ X_U1.X_INA849_INAMP0.N256703 X_U1.X_INA849_INAMP0.R_NOISELESS 5.75K
X_U1.X_INA849_INAMP0.R_R_VIMON11 X_U1.X_INA849_INAMP0.N970369
+ X_U1.X_INA849_INAMP0.VIMON1 X_U1.X_INA849_INAMP0.R_NOISELESS 100
X_U1.X_INA849_INAMP0.R_R_VIMON12 X_U1.MID
+ X_U1.X_INA849_INAMP0.N970369 X_U1.X_INA849_INAMP0.R_NOISELESS 1T
X_U1.X_INA849_INAMP0.X_H_IMON11 X_U1.X_INA849_INAMP0.N256819
+ X_U1.NODE1 X_U1.X_INA849_INAMP0.N970369 X_U1.MID
+ INA849_INAMP_H_IMON11
X_U1.X_INA849_INAMP0.X_U2 PARAMS X_U2.GAIN 1E-4 X_U2.IPOS .5
+ X_U2.INEG -.5 X_U1.X_INA849_INAMP0.N928127
+ X_U1.X_INA849_INAMP0.N928131 X_U1.MID X_U1.X_INA849_INAMP0.N261786
+ AOL_1_INA849_INAMP
X_U1.X_INA849_INAMP0.X_U3 PARAMS X_U3.GAIN 8.848E-3 X_U3.IPOS 4
+ X_U3.INEG -4 X_U1.X_INA849_INAMP0.N261786 X_U1.MID X_U1.MID
+ X_U1.X_INA849_INAMP0.CLAMP1 AOL_2_INA849_INAMP
X_U1.X_INA849_INAMP0.X_U_INAMP_IQN PARAMS X_U_INAMP_IQN.GAIN 1E-3
+ X_U1.MID X_U1.X_INA849_INAMP0.VIMON1 VEE X_U1.MID
+ IQ_SRC_INA849_INAMP
X_U1.X_INA849_INAMP0.X_U_INAMP_IQP PARAMS X_U_INAMP_IQP.GAIN 1E-3
+ X_U1.X_INA849_INAMP0.VIMON1 X_U1.MID X_U1.MID VCC
+ IQ_SRC_INA849_INAMP


**** EXPANSION OF SUBCIRCUIT X_U1.X_INA849_INAMP1 ****
X_U1.X_INA849_INAMP1.C_C10 X_U1.X_INA849_INAMP1.N256245
+ X_U1.X_INA849_INAMP1.N256255 787.9N
X_U1.X_INA849_INAMP1.C_C11 X_U1.MID X_U1.X_INA849_INAMP1.N257223
+ 43.6P
X_U1.X_INA849_INAMP1.C_C21 X_U1.X_INA849_INAMP1.N256265
+ X_U1.X_INA849_INAMP1.N256273 3.577P
X_U1.X_INA849_INAMP1.C_C22 X_U1.MID X_U1.X_INA849_INAMP1.N257277 83F
X_U1.X_INA849_INAMP1.C_C25 X_U1.X_INA849_INAMP1.CLAMP1 X_U1.MID
+ 8.204N
X_U1.X_INA849_INAMP1.C_C28 X_U1.MID X_U1.X_INA849_INAMP1.N957967 83F
X_U1.X_INA849_INAMP1.C_C_VIMON11 X_U1.X_INA849_INAMP1.VIMON1 X_U1.MID
+ 1P
X_U1.X_INA849_INAMP1.G_G12 X_U1.X_INA849_INAMP1.VSENSE1 X_U1.MID
+ X_U1.X_INA849_INAMP1.CLAMP1 X_U1.MID -1M
X_U1.X_INA849_INAMP1.G_G15 X_U1.X_INA849_INAMP1.N256245 X_U1.MID
+ X_U1.X_INA849_INAMP1.VSENSE1 X_U1.X_INA849_INAMP1.N256819 -89
X_U1.X_INA849_INAMP1.G_G16 X_U1.X_INA849_INAMP1.N256555 X_U1.MID
+ X_U1.X_INA849_INAMP1.N256255 X_U1.MID -3.505
X_U1.X_INA849_INAMP1.G_G17 X_U1.X_INA849_INAMP1.N256265 X_U1.MID
+ X_U1.X_INA849_INAMP1.N256573 X_U1.MID -1
X_U1.X_INA849_INAMP1.G_G26 X_U1.X_INA849_INAMP1.N256623 X_U1.MID
+ X_U1.X_INA849_INAMP1.N256273 X_U1.MID -1.022
X_U1.X_INA849_INAMP1.G_G27 X_U1.X_INA849_INAMP1.N256659 X_U1.MID
+ X_U1.X_INA849_INAMP1.N256643 X_U1.MID -1
X_U1.X_INA849_INAMP1.G_G55 X_U1.X_INA849_INAMP1.N256703 X_U1.MID
+ X_U1.X_INA849_INAMP1.N957915 X_U1.MID -1
X_U1.X_INA849_INAMP1.R_R136 X_U1.MID X_U1.X_INA849_INAMP1.VSENSE1
+ X_U1.X_INA849_INAMP1.R_NOISELESS 1K
X_U1.X_INA849_INAMP1.R_R143 X_U1.X_INA849_INAMP1.N957915
+ X_U1.X_INA849_INAMP1.N256659 X_U1.X_INA849_INAMP1.R_NOISELESS 9.8K
X_U1.X_INA849_INAMP1.R_R144 X_U1.X_INA849_INAMP1.N957967
+ X_U1.X_INA849_INAMP1.N957915 X_U1.X_INA849_INAMP1.R_NOISELESS 10K
X_U1.X_INA849_INAMP1.R_R34 X_U1.X_INA849_INAMP1.N256255
+ X_U1.X_INA849_INAMP1.N256245 X_U1.X_INA849_INAMP1.R_NOISELESS 10K
X_U1.X_INA849_INAMP1.R_R35 X_U1.MID X_U1.X_INA849_INAMP1.N256245
+ X_U1.X_INA849_INAMP1.R_NOISELESS 1
X_U1.X_INA849_INAMP1.R_R36 X_U1.MID X_U1.X_INA849_INAMP1.N256255
+ X_U1.X_INA849_INAMP1.R_NOISELESS 3.992K
X_U1.X_INA849_INAMP1.R_R38 X_U1.X_INA849_INAMP1.N256573
+ X_U1.X_INA849_INAMP1.N256555 X_U1.X_INA849_INAMP1.R_NOISELESS 224.1
X_U1.X_INA849_INAMP1.R_R39 X_U1.X_INA849_INAMP1.N257223
+ X_U1.X_INA849_INAMP1.N256573 X_U1.X_INA849_INAMP1.R_NOISELESS 10K
X_U1.X_INA849_INAMP1.R_R41 X_U1.MID X_U1.X_INA849_INAMP1.N256265
+ X_U1.X_INA849_INAMP1.R_NOISELESS 1
X_U1.X_INA849_INAMP1.R_R46 X_U1.MID X_U1.X_INA849_INAMP1.N256555
+ X_U1.X_INA849_INAMP1.R_NOISELESS 1
X_U1.X_INA849_INAMP1.R_R67 X_U1.X_INA849_INAMP1.N256273
+ X_U1.X_INA849_INAMP1.N256265 X_U1.X_INA849_INAMP1.R_NOISELESS 10K
X_U1.X_INA849_INAMP1.R_R68 X_U1.MID X_U1.X_INA849_INAMP1.N256623
+ X_U1.X_INA849_INAMP1.R_NOISELESS 1
X_U1.X_INA849_INAMP1.R_R69 X_U1.MID X_U1.X_INA849_INAMP1.N256273
+ X_U1.X_INA849_INAMP1.R_NOISELESS 445K
X_U1.X_INA849_INAMP1.R_R70 X_U1.X_INA849_INAMP1.N256643
+ X_U1.X_INA849_INAMP1.N256623 X_U1.X_INA849_INAMP1.R_NOISELESS 9.8K
X_U1.X_INA849_INAMP1.R_R71 X_U1.X_INA849_INAMP1.N257277
+ X_U1.X_INA849_INAMP1.N256643 X_U1.X_INA849_INAMP1.R_NOISELESS 10K
X_U1.X_INA849_INAMP1.R_R72 X_U1.MID X_U1.X_INA849_INAMP1.N256659
+ X_U1.X_INA849_INAMP1.R_NOISELESS 1
X_U1.X_INA849_INAMP1.R_R75 X_U1.MID X_U1.X_INA849_INAMP1.N256703
+ X_U1.X_INA849_INAMP1.R_NOISELESS 1
X_U1.X_INA849_INAMP1.R_R78 X_U1.MID X_U1.X_INA849_INAMP1.N261786
+ X_U1.X_INA849_INAMP1.R_NOISELESS 1MEG
X_U1.X_INA849_INAMP1.R_R79 X_U1.MID X_U1.X_INA849_INAMP1.CLAMP1
+ X_U1.X_INA849_INAMP1.R_NOISELESS 1MEG
X_U1.X_INA849_INAMP1.R_RDUMMY1 X_U1.MID X_U1.X_INA849_INAMP1.N256819
+ X_U1.X_INA849_INAMP1.R_NOISELESS 575
X_U1.X_INA849_INAMP1.R_RIN1 X_U1.X_INA849_INAMP1.N928127 X_U1.N969449
+ X_U1.X_INA849_INAMP1.R_NOISELESS 10M
X_U1.X_INA849_INAMP1.R_RIN2 X_U1.X_INA849_INAMP1.N928131 X_U1.N969473
+ X_U1.X_INA849_INAMP1.R_NOISELESS 10M
X_U1.X_INA849_INAMP1.R_RX1 X_U1.X_INA849_INAMP1.N256819
+ X_U1.X_INA849_INAMP1.N256703 X_U1.X_INA849_INAMP1.R_NOISELESS 5.75K
X_U1.X_INA849_INAMP1.R_R_VIMON11 X_U1.X_INA849_INAMP1.N970369
+ X_U1.X_INA849_INAMP1.VIMON1 X_U1.X_INA849_INAMP1.R_NOISELESS 100
X_U1.X_INA849_INAMP1.R_R_VIMON12 X_U1.MID
+ X_U1.X_INA849_INAMP1.N970369 X_U1.X_INA849_INAMP1.R_NOISELESS 1T
X_U1.X_INA849_INAMP1.X_H_IMON11 X_U1.X_INA849_INAMP1.N256819
+ X_U1.NODE2 X_U1.X_INA849_INAMP1.N970369 X_U1.MID
+ INA849_INAMP_H_IMON11
X_U1.X_INA849_INAMP1.X_U2 PARAMS X_U2.GAIN 1E-4 X_U2.IPOS .5
+ X_U2.INEG -.5 X_U1.X_INA849_INAMP1.N928127
+ X_U1.X_INA849_INAMP1.N928131 X_U1.MID X_U1.X_INA849_INAMP1.N261786
+ AOL_1_INA849_INAMP
X_U1.X_INA849_INAMP1.X_U3 PARAMS X_U3.GAIN 8.848E-3 X_U3.IPOS 4
+ X_U3.INEG -4 X_U1.X_INA849_INAMP1.N261786 X_U1.MID X_U1.MID
+ X_U1.X_INA849_INAMP1.CLAMP1 AOL_2_INA849_INAMP
X_U1.X_INA849_INAMP1.X_U_INAMP_IQN PARAMS X_U_INAMP_IQN.GAIN 1E-3
+ X_U1.MID X_U1.X_INA849_INAMP1.VIMON1 VEE X_U1.MID
+ IQ_SRC_INA849_INAMP
X_U1.X_INA849_INAMP1.X_U_INAMP_IQP PARAMS X_U_INAMP_IQP.GAIN 1E-3
+ X_U1.X_INA849_INAMP1.VIMON1 X_U1.MID X_U1.MID VCC
+ IQ_SRC_INA849_INAMP


**** EXPANSION OF SUBCIRCUIT X_U1.X_INA849_OUTAMP ****
X_U1.X_INA849_OUTAMP.C_C106 X_U1.X_INA849_OUTAMP.N1661226 X_U1.MID 1F
X_U1.X_INA849_OUTAMP.C_C107 X_U1.MID X_U1.X_INA849_OUTAMP.N1661626 1F
X_U1.X_INA849_OUTAMP.C_C108 X_U1.X_INA849_OUTAMP.N1661462 X_U1.MID 1P
X_U1.X_INA849_OUTAMP.C_C109 X_U1.MID X_U1.X_INA849_OUTAMP.N1661680 1P
X_U1.X_INA849_OUTAMP.C_C110 X_U1.X_INA849_OUTAMP.N1663763 X_U1.MID 1P
X_U1.X_INA849_OUTAMP.C_C111 X_U1.MID X_U1.X_INA849_OUTAMP.N1664091 1P
X_U1.X_INA849_OUTAMP.C_C112 X_U1.X_INA849_OUTAMP.N1663947 X_U1.MID 1P
X_U1.X_INA849_OUTAMP.C_C113 X_U1.MID X_U1.X_INA849_OUTAMP.N1664179 1P
X_U1.X_INA849_OUTAMP.C_C114 X_U1.X_INA849_OUTAMP.VCLP X_U1.MID 1P
X_U1.X_INA849_OUTAMP.C_C115 X_U1.X_INA849_OUTAMP.N1939474
+ X_U1.X_INA849_OUTAMP.N1939484 418U
X_U1.X_INA849_OUTAMP.C_C116 X_U1.X_INA849_OUTAMP.N1939514
+ X_U1.X_INA849_OUTAMP.N1939524 324F
X_U1.X_INA849_OUTAMP.C_C117 X_U1.X_INA849_OUTAMP.N1939534
+ X_U1.X_INA849_OUTAMP.N1939542 31.83F
X_U1.X_INA849_OUTAMP.C_C118 X_U1.X_INA849_OUTAMP.N1939552
+ X_U1.X_INA849_OUTAMP.N1939562 31.83F
X_U1.X_INA849_OUTAMP.C_C119 X_U1.X_INA849_OUTAMP.N1939572
+ X_U1.X_INA849_OUTAMP.N1939580 31.83F
X_U1.X_INA849_OUTAMP.C_C120 X_U1.MID X_U1.X_INA849_OUTAMP.N1940758
+ 2.49P
X_U1.X_INA849_OUTAMP.C_C121 X_U1.MID X_U1.X_INA849_OUTAMP.N1940790
+ 2.49P
X_U1.X_INA849_OUTAMP.C_C122 X_U1.MID X_U1.X_INA849_OUTAMP.N1940844
+ 26.98F
X_U1.X_INA849_OUTAMP.C_C123 X_U1.MID X_U1.X_INA849_OUTAMP.N1940876
+ 26.98F
X_U1.X_INA849_OUTAMP.C_C13 X_U1.X_INA849_OUTAMP.N1939494
+ X_U1.X_INA849_OUTAMP.N1939504 723N
X_U1.X_INA849_OUTAMP.C_C29 X_U1.X_INA849_OUTAMP.N1428789
+ X_U1.X_INA849_OUTAMP.N1428799 677F
X_U1.X_INA849_OUTAMP.C_C30 X_U1.X_INA849_OUTAMP.N1428809
+ X_U1.X_INA849_OUTAMP.N1428819 677F
X_U1.X_INA849_OUTAMP.C_C33 X_U1.X_INA849_OUTAMP.CLAMP X_U1.MID 900N
X_U1.X_INA849_OUTAMP.C_C34 X_U1.MID X_U1.X_INA849_OUTAMP.N1428991
+ 13.5F
X_U1.X_INA849_OUTAMP.C_CCM2 X_U1.MID X_U1.X_INA849_OUTAMP.N995776 1F
X_U1.X_INA849_OUTAMP.C_CIN2_CMN X_U1.X_INA849_OUTAMP.N953203 X_U1.MID
+ 1P
X_U1.X_INA849_OUTAMP.C_CIN2_CMP X_U1.MID X_U1.X_INA849_OUTAMP.N953165
+ 1P
X_U1.X_INA849_OUTAMP.C_CIN2_DIFF X_U1.X_INA849_OUTAMP.N953165
+ X_U1.X_INA849_OUTAMP.N953203 1P
X_U1.X_INA849_OUTAMP.C_CP1 X_U1.X_INA849_OUTAMP.N1389051
+ X_U1.X_INA849_OUTAMP.N1389061 144.7P
X_U1.X_INA849_OUTAMP.C_CP2 X_U1.MID X_U1.X_INA849_OUTAMP.N1389297
+ 26.53F
X_U1.X_INA849_OUTAMP.C_CP3 X_U1.X_INA849_OUTAMP.N1388079
+ X_U1.X_INA849_OUTAMP.N1388089 41.88P
X_U1.X_INA849_OUTAMP.C_CP4 X_U1.X_INA849_OUTAMP.N1388099
+ X_U1.X_INA849_OUTAMP.N1388109 13.26P
X_U1.X_INA849_OUTAMP.C_CP5 X_U1.X_INA849_OUTAMP.N1388119
+ X_U1.X_INA849_OUTAMP.N1388129 13.26P
X_U1.X_INA849_OUTAMP.C_CP6 X_U1.MID X_U1.X_INA849_OUTAMP.N1388615
+ 79.58F
X_U1.X_INA849_OUTAMP.C_CP7 X_U1.MID X_U1.X_INA849_OUTAMP.N1388629
+ 79.58F
X_U1.X_INA849_OUTAMP.C_C_VIMON X_U1.X_INA849_OUTAMP.VIMON X_U1.MID 1P
X_U1.X_INA849_OUTAMP.C_C_VOUTS X_U1.X_INA849_OUTAMP.VOUT_S X_U1.MID
+ 1P
X_U1.X_INA849_OUTAMP.E_E2 X_U1.X_INA849_OUTAMP.N1696516 X_U1.MID
+ X_U1.X_INA849_OUTAMP.CL_CLAMP_OP X_U1.MID 1
X_U1.X_INA849_OUTAMP.E_E4 X_U1.X_INA849_OUTAMP.N1403176 X_U1.MID OUT
+ X_U1.MID 1
X_U1.X_INA849_OUTAMP.G_G18 X_U1.X_INA849_OUTAMP.N1939722 X_U1.MID
+ X_U1.X_INA849_OUTAMP.N1939504 X_U1.MID -114.5
X_U1.X_INA849_OUTAMP.G_G53 X_U1.X_INA849_OUTAMP.VCC_CLP X_U1.MID
+ X_U1.X_INA849_OUTAMP.N1661226 X_U1.MID -1M
X_U1.X_INA849_OUTAMP.G_G57 X_U1.X_INA849_OUTAMP.N1394772
+ X_U1.X_INA849_OUTAMP.N1394706 X_U1.X_INA849_OUTAMP.PSRR+
+ X_U1.X_INA849_OUTAMP.PSRR- -1M
X_U1.X_INA849_OUTAMP.G_G58 X_U1.X_INA849_OUTAMP.CLAW_CLAMP_OP
+ X_U1.MID X_U1.X_INA849_OUTAMP.N1428819 X_U1.MID -1M
X_U1.X_INA849_OUTAMP.G_G59 X_U1.X_INA849_OUTAMP.CL_CLAMP_OP X_U1.MID
+ X_U1.X_INA849_OUTAMP.CLAW_CLAMP_OP X_U1.MID -1M
X_U1.X_INA849_OUTAMP.G_G60 X_U1.X_INA849_OUTAMP.N1428789 X_U1.MID
+ X_U1.X_INA849_OUTAMP.N1428991 X_U1.MID -6.381
X_U1.X_INA849_OUTAMP.G_G61 X_U1.X_INA849_OUTAMP.N1428809 X_U1.MID
+ X_U1.X_INA849_OUTAMP.N1428799 X_U1.MID -6.381
X_U1.X_INA849_OUTAMP.G_G64 X_U1.X_INA849_OUTAMP.VSENSE X_U1.MID
+ X_U1.X_INA849_OUTAMP.CLAMP X_U1.MID -1E-3
X_U1.X_INA849_OUTAMP.G_G65 X_U1.X_INA849_OUTAMP.N1428991 X_U1.MID
+ X_U1.X_INA849_OUTAMP.VSENSE X_U1.MID -1E-6
X_U1.X_INA849_OUTAMP.G_G66 X_U1.X_INA849_OUTAMP.VEE_CLP X_U1.MID
+ X_U1.X_INA849_OUTAMP.N1661626 X_U1.MID -1M
X_U1.X_INA849_OUTAMP.G_G69 X_U1.X_INA849_OUTAMP.N1939474 X_U1.MID
+ X_U1.X_INA849_OUTAMP.CL_CLAMP_OP X_U1.X_INA849_OUTAMP.OUT_NODE -89
X_U1.X_INA849_OUTAMP.G_G70 X_U1.X_INA849_OUTAMP.N1939494 X_U1.MID
+ X_U1.X_INA849_OUTAMP.N1939484 X_U1.MID -1.316K
X_U1.X_INA849_OUTAMP.G_G71 X_U1.X_INA849_OUTAMP.N1939792 X_U1.MID
+ X_U1.X_INA849_OUTAMP.N1939524 X_U1.MID -1.63
X_U1.X_INA849_OUTAMP.G_G72 X_U1.X_INA849_OUTAMP.N1939552 X_U1.MID
+ X_U1.X_INA849_OUTAMP.N1939542 X_U1.MID -20
X_U1.X_INA849_OUTAMP.G_G73 X_U1.X_INA849_OUTAMP.N1939572 X_U1.MID
+ X_U1.X_INA849_OUTAMP.N1939562 X_U1.MID -20
X_U1.X_INA849_OUTAMP.G_G74 X_U1.X_INA849_OUTAMP.N1939746 X_U1.MID
+ X_U1.X_INA849_OUTAMP.N1939730 X_U1.MID -1
X_U1.X_INA849_OUTAMP.G_G75 X_U1.X_INA849_OUTAMP.N1939514 X_U1.MID
+ X_U1.X_INA849_OUTAMP.N1939754 X_U1.MID -1
X_U1.X_INA849_OUTAMP.G_G76 X_U1.X_INA849_OUTAMP.N1939816 X_U1.MID
+ X_U1.X_INA849_OUTAMP.N1939800 X_U1.MID -1
X_U1.X_INA849_OUTAMP.G_G77 X_U1.X_INA849_OUTAMP.N1939534 X_U1.MID
+ X_U1.X_INA849_OUTAMP.N1939824 X_U1.MID -1
X_U1.X_INA849_OUTAMP.G_G_PSRNEG X_U1.X_INA849_OUTAMP.N1388079
+ X_U1.MID X_U1.VEE_B X_U1.MID -10.53M
X_U1.X_INA849_OUTAMP.G_G_PSRNEG1 X_U1.X_INA849_OUTAMP.N1388099
+ X_U1.MID X_U1.X_INA849_OUTAMP.N1388089 X_U1.MID -1
X_U1.X_INA849_OUTAMP.G_G_PSRNEG2 X_U1.X_INA849_OUTAMP.N1388119
+ X_U1.MID X_U1.X_INA849_OUTAMP.N1388109 X_U1.MID -16.67
X_U1.X_INA849_OUTAMP.G_G_PSRNEG3 X_U1.X_INA849_OUTAMP.N1388139
+ X_U1.MID X_U1.X_INA849_OUTAMP.N1388129 X_U1.MID -16.67
X_U1.X_INA849_OUTAMP.G_G_PSRNEG4 X_U1.X_INA849_OUTAMP.N1388167
+ X_U1.MID X_U1.X_INA849_OUTAMP.N1388149 X_U1.MID -1
X_U1.X_INA849_OUTAMP.G_G_PSRNEG5 X_U1.X_INA849_OUTAMP.PSRR- X_U1.MID
+ X_U1.X_INA849_OUTAMP.N1388177 X_U1.MID -1
X_U1.X_INA849_OUTAMP.G_G_PSRPOS X_U1.X_INA849_OUTAMP.N1389051
+ X_U1.MID X_U1.VCC_B X_U1.MID -1.818
X_U1.X_INA849_OUTAMP.G_G_PSRPOS1 X_U1.X_INA849_OUTAMP.N1389071
+ X_U1.MID X_U1.X_INA849_OUTAMP.N1389061 X_U1.MID -1
X_U1.X_INA849_OUTAMP.G_G_PSRPOS2 X_U1.X_INA849_OUTAMP.PSRR+ X_U1.MID
+ X_U1.X_INA849_OUTAMP.N1389081 X_U1.MID -1
X_U1.X_INA849_OUTAMP.R_R120 X_U1.X_INA849_OUTAMP.N1661302 X_U1.VCC_B
+ X_U1.X_INA849_OUTAMP.R_NOISELESS 1K
X_U1.X_INA849_OUTAMP.R_R121 X_U1.VEE_B X_U1.X_INA849_OUTAMP.N1661612
+ X_U1.X_INA849_OUTAMP.R_NOISELESS 1K
X_U1.X_INA849_OUTAMP.R_R122 X_U1.X_INA849_OUTAMP.N1661226
+ X_U1.X_INA849_OUTAMP.N1661302 X_U1.X_INA849_OUTAMP.R_NOISELESS 1
X_U1.X_INA849_OUTAMP.R_R123 X_U1.X_INA849_OUTAMP.N1661626
+ X_U1.X_INA849_OUTAMP.N1661612 X_U1.X_INA849_OUTAMP.R_NOISELESS 1
X_U1.X_INA849_OUTAMP.R_R124 X_U1.X_INA849_OUTAMP.VCC_CLP X_U1.MID
+ X_U1.X_INA849_OUTAMP.R_NOISELESS 1K
X_U1.X_INA849_OUTAMP.R_R125 X_U1.MID X_U1.X_INA849_OUTAMP.VEE_CLP
+ X_U1.X_INA849_OUTAMP.R_NOISELESS 1K
X_U1.X_INA849_OUTAMP.R_R126 X_U1.X_INA849_OUTAMP.VCC_CLP X_U1.MID
+ X_U1.X_INA849_OUTAMP.R_NOISELESS 1T
X_U1.X_INA849_OUTAMP.R_R127 X_U1.MID X_U1.X_INA849_OUTAMP.VEE_CLP
+ X_U1.X_INA849_OUTAMP.R_NOISELESS 1T
X_U1.X_INA849_OUTAMP.R_R128 X_U1.X_INA849_OUTAMP.N1661466 X_U1.MID
+ X_U1.X_INA849_OUTAMP.R_NOISELESS 1
X_U1.X_INA849_OUTAMP.R_R129 X_U1.MID X_U1.X_INA849_OUTAMP.N1661666
+ X_U1.X_INA849_OUTAMP.R_NOISELESS 1
X_U1.X_INA849_OUTAMP.R_R130 X_U1.X_INA849_OUTAMP.N1661462
+ X_U1.X_INA849_OUTAMP.N1661466 X_U1.X_INA849_OUTAMP.R_NOISELESS 1
X_U1.X_INA849_OUTAMP.R_R131 X_U1.X_INA849_OUTAMP.N1661680
+ X_U1.X_INA849_OUTAMP.N1661666 X_U1.X_INA849_OUTAMP.R_NOISELESS 1
X_U1.X_INA849_OUTAMP.R_R142 X_U1.MID X_U1.X_INA849_OUTAMP.N1664165
+ X_U1.X_INA849_OUTAMP.R_NOISELESS 1
X_U1.X_INA849_OUTAMP.R_R143 X_U1.MID X_U1.X_INA849_OUTAMP.N1664265
+ X_U1.X_INA849_OUTAMP.R_NOISELESS 1G
X_U1.X_INA849_OUTAMP.R_R145 X_U1.X_INA849_OUTAMP.N1394772
+ X_U1.X_INA849_OUTAMP.N1394706 X_U1.X_INA849_OUTAMP.R_NOISELESS 1K
X_U1.X_INA849_OUTAMP.R_R146 X_U1.MID
+ X_U1.X_INA849_OUTAMP.CLAW_CLAMP_OP X_U1.X_INA849_OUTAMP.R_NOISELESS
+ 1K
X_U1.X_INA849_OUTAMP.R_R147 X_U1.MID X_U1.X_INA849_OUTAMP.CL_CLAMP_OP
+ X_U1.X_INA849_OUTAMP.R_NOISELESS 1K
X_U1.X_INA849_OUTAMP.R_R148 X_U1.X_INA849_OUTAMP.N1428799
+ X_U1.X_INA849_OUTAMP.N1428789 X_U1.X_INA849_OUTAMP.R_NOISELESS 10K
X_U1.X_INA849_OUTAMP.R_R149 X_U1.X_INA849_OUTAMP.N1428819
+ X_U1.X_INA849_OUTAMP.N1428809 X_U1.X_INA849_OUTAMP.R_NOISELESS 10K
X_U1.X_INA849_OUTAMP.R_R152 X_U1.MID X_U1.X_INA849_OUTAMP.N1428789
+ X_U1.X_INA849_OUTAMP.R_NOISELESS 1
X_U1.X_INA849_OUTAMP.R_R153 X_U1.MID X_U1.X_INA849_OUTAMP.N1428809
+ X_U1.X_INA849_OUTAMP.R_NOISELESS 1
X_U1.X_INA849_OUTAMP.R_R156 X_U1.X_INA849_OUTAMP.N1428991 X_U1.MID
+ X_U1.X_INA849_OUTAMP.R_NOISELESS 1E6
X_U1.X_INA849_OUTAMP.R_R157 X_U1.MID X_U1.X_INA849_OUTAMP.N1428799
+ X_U1.X_INA849_OUTAMP.R_NOISELESS 1.858K
X_U1.X_INA849_OUTAMP.R_R158 X_U1.MID X_U1.X_INA849_OUTAMP.N1428819
+ X_U1.X_INA849_OUTAMP.R_NOISELESS 1.858K
X_U1.X_INA849_OUTAMP.R_R161 X_U1.MID X_U1.X_INA849_OUTAMP.VSENSE
+ X_U1.X_INA849_OUTAMP.R_NOISELESS 1E3
X_U1.X_INA849_OUTAMP.R_R162 X_U1.X_INA849_OUTAMP.N1663647 X_U1.MID
+ X_U1.X_INA849_OUTAMP.R_NOISELESS 1T
X_U1.X_INA849_OUTAMP.R_R163 X_U1.X_INA849_OUTAMP.N1663665 X_U1.MID
+ X_U1.X_INA849_OUTAMP.R_NOISELESS 1G
X_U1.X_INA849_OUTAMP.R_R164 X_U1.X_INA849_OUTAMP.N1663805 X_U1.MID
+ X_U1.X_INA849_OUTAMP.R_NOISELESS 1
X_U1.X_INA849_OUTAMP.R_R165 X_U1.X_INA849_OUTAMP.N1663951 X_U1.MID
+ X_U1.X_INA849_OUTAMP.R_NOISELESS 1
X_U1.X_INA849_OUTAMP.R_R166 X_U1.X_INA849_OUTAMP.N1663763
+ X_U1.X_INA849_OUTAMP.N1663805 X_U1.X_INA849_OUTAMP.R_NOISELESS 1
X_U1.X_INA849_OUTAMP.R_R167 X_U1.X_INA849_OUTAMP.N1663947
+ X_U1.X_INA849_OUTAMP.N1663951 X_U1.X_INA849_OUTAMP.R_NOISELESS 1
X_U1.X_INA849_OUTAMP.R_R168 X_U1.X_INA849_OUTAMP.N1664091
+ X_U1.X_INA849_OUTAMP.N1664077 X_U1.X_INA849_OUTAMP.R_NOISELESS 1
X_U1.X_INA849_OUTAMP.R_R169 X_U1.X_INA849_OUTAMP.N1664179
+ X_U1.X_INA849_OUTAMP.N1664165 X_U1.X_INA849_OUTAMP.R_NOISELESS 1
X_U1.X_INA849_OUTAMP.R_R170 X_U1.MID X_U1.X_INA849_OUTAMP.N1664077
+ X_U1.X_INA849_OUTAMP.R_NOISELESS 1
X_U1.X_INA849_OUTAMP.R_R171 X_U1.MID X_U1.X_INA849_OUTAMP.N1664201
+ X_U1.X_INA849_OUTAMP.R_NOISELESS 1T
X_U1.X_INA849_OUTAMP.R_R172 X_U1.X_INA849_OUTAMP.N1939730
+ X_U1.X_INA849_OUTAMP.N1939722 X_U1.X_INA849_OUTAMP.R_NOISELESS
+ 25.56K
X_U1.X_INA849_OUTAMP.R_R173 X_U1.X_INA849_OUTAMP.N1939754
+ X_U1.X_INA849_OUTAMP.N1939746 X_U1.X_INA849_OUTAMP.R_NOISELESS
+ 25.56K
X_U1.X_INA849_OUTAMP.R_R174 X_U1.X_INA849_OUTAMP.N1939800
+ X_U1.X_INA849_OUTAMP.N1939792 X_U1.X_INA849_OUTAMP.R_NOISELESS 49K
X_U1.X_INA849_OUTAMP.R_R175 X_U1.X_INA849_OUTAMP.N1939824
+ X_U1.X_INA849_OUTAMP.N1939816 X_U1.X_INA849_OUTAMP.R_NOISELESS 49K
X_U1.X_INA849_OUTAMP.R_R176 X_U1.X_INA849_OUTAMP.N1939484
+ X_U1.X_INA849_OUTAMP.N1939474 X_U1.X_INA849_OUTAMP.R_NOISELESS 10K
X_U1.X_INA849_OUTAMP.R_R177 X_U1.X_INA849_OUTAMP.N1939524
+ X_U1.X_INA849_OUTAMP.N1939514 X_U1.X_INA849_OUTAMP.R_NOISELESS 10K
X_U1.X_INA849_OUTAMP.R_R178 X_U1.X_INA849_OUTAMP.N1939542
+ X_U1.X_INA849_OUTAMP.N1939534 X_U1.X_INA849_OUTAMP.R_NOISELESS 10K
X_U1.X_INA849_OUTAMP.R_R179 X_U1.X_INA849_OUTAMP.N1939562
+ X_U1.X_INA849_OUTAMP.N1939552 X_U1.X_INA849_OUTAMP.R_NOISELESS 10K
X_U1.X_INA849_OUTAMP.R_R180 X_U1.X_INA849_OUTAMP.N1939580
+ X_U1.X_INA849_OUTAMP.N1939572 X_U1.X_INA849_OUTAMP.R_NOISELESS 10K
X_U1.X_INA849_OUTAMP.R_R181 X_U1.X_INA849_OUTAMP.N1940758
+ X_U1.X_INA849_OUTAMP.N1939730 X_U1.X_INA849_OUTAMP.R_NOISELESS 10K
X_U1.X_INA849_OUTAMP.R_R182 X_U1.X_INA849_OUTAMP.N1940790
+ X_U1.X_INA849_OUTAMP.N1939754 X_U1.X_INA849_OUTAMP.R_NOISELESS 10K
X_U1.X_INA849_OUTAMP.R_R183 X_U1.X_INA849_OUTAMP.N1940844
+ X_U1.X_INA849_OUTAMP.N1939800 X_U1.X_INA849_OUTAMP.R_NOISELESS 10K
X_U1.X_INA849_OUTAMP.R_R184 X_U1.X_INA849_OUTAMP.N1940876
+ X_U1.X_INA849_OUTAMP.N1939824 X_U1.X_INA849_OUTAMP.R_NOISELESS 10K
X_U1.X_INA849_OUTAMP.R_R185 X_U1.MID X_U1.X_INA849_OUTAMP.N1939722
+ X_U1.X_INA849_OUTAMP.R_NOISELESS 1
X_U1.X_INA849_OUTAMP.R_R186 X_U1.MID X_U1.X_INA849_OUTAMP.N1939792
+ X_U1.X_INA849_OUTAMP.R_NOISELESS 1
X_U1.X_INA849_OUTAMP.R_R187 X_U1.MID X_U1.X_INA849_OUTAMP.N1939816
+ X_U1.X_INA849_OUTAMP.R_NOISELESS 1
X_U1.X_INA849_OUTAMP.R_R188 X_U1.MID X_U1.X_INA849_OUTAMP.N1939534
+ X_U1.X_INA849_OUTAMP.R_NOISELESS 1
X_U1.X_INA849_OUTAMP.R_R189 X_U1.MID X_U1.X_INA849_OUTAMP.N1939552
+ X_U1.X_INA849_OUTAMP.R_NOISELESS 1
X_U1.X_INA849_OUTAMP.R_R190 X_U1.MID X_U1.X_INA849_OUTAMP.N1939572
+ X_U1.X_INA849_OUTAMP.R_NOISELESS 1
X_U1.X_INA849_OUTAMP.R_R191 X_U1.MID X_U1.X_INA849_OUTAMP.N1940296
+ X_U1.X_INA849_OUTAMP.R_NOISELESS 1
X_U1.X_INA849_OUTAMP.R_R192 X_U1.MID X_U1.X_INA849_OUTAMP.N1939474
+ X_U1.X_INA849_OUTAMP.R_NOISELESS 1
X_U1.X_INA849_OUTAMP.R_R193 X_U1.MID X_U1.X_INA849_OUTAMP.N1939484
+ X_U1.X_INA849_OUTAMP.R_NOISELESS 7.606
X_U1.X_INA849_OUTAMP.R_R194 X_U1.MID X_U1.X_INA849_OUTAMP.N1939524
+ X_U1.X_INA849_OUTAMP.R_NOISELESS 15.81K
X_U1.X_INA849_OUTAMP.R_R195 X_U1.MID X_U1.X_INA849_OUTAMP.N1939542
+ X_U1.X_INA849_OUTAMP.R_NOISELESS 526.3
X_U1.X_INA849_OUTAMP.R_R196 X_U1.MID X_U1.X_INA849_OUTAMP.N1939562
+ X_U1.X_INA849_OUTAMP.R_NOISELESS 526.3
X_U1.X_INA849_OUTAMP.R_R197 X_U1.MID X_U1.X_INA849_OUTAMP.N1939580
+ X_U1.X_INA849_OUTAMP.R_NOISELESS 526.3
X_U1.X_INA849_OUTAMP.R_R198 X_U1.MID X_U1.X_INA849_OUTAMP.N1939746
+ X_U1.X_INA849_OUTAMP.R_NOISELESS 1
X_U1.X_INA849_OUTAMP.R_R199 X_U1.MID X_U1.X_INA849_OUTAMP.N1939514
+ X_U1.X_INA849_OUTAMP.R_NOISELESS 1
X_U1.X_INA849_OUTAMP.R_R37 X_U1.MID X_U1.X_INA849_OUTAMP.N1939494
+ X_U1.X_INA849_OUTAMP.R_NOISELESS 1
X_U1.X_INA849_OUTAMP.R_R44 X_U1.X_INA849_OUTAMP.N1939504
+ X_U1.X_INA849_OUTAMP.N1939494 X_U1.X_INA849_OUTAMP.R_NOISELESS 10K
X_U1.X_INA849_OUTAMP.R_R45 X_U1.MID X_U1.X_INA849_OUTAMP.N1939504
+ X_U1.X_INA849_OUTAMP.R_NOISELESS 88.07
X_U1.X_INA849_OUTAMP.R_R84 X_U1.X_INA849_OUTAMP.N1696516
+ X_U1.X_INA849_OUTAMP.VCLP X_U1.X_INA849_OUTAMP.R_NOISELESS 100
X_U1.X_INA849_OUTAMP.R_RCM5 X_U1.MID X_U1.X_INA849_OUTAMP.N1401129
+ X_U1.X_INA849_OUTAMP.R_NOISELESS 1T
X_U1.X_INA849_OUTAMP.R_RCM6 X_U1.X_INA849_OUTAMP.N1401213
+ X_U1.X_INA849_OUTAMP.N995776 X_U1.X_INA849_OUTAMP.R_NOISELESS 1M
X_U1.X_INA849_OUTAMP.R_RCM7 X_U1.X_INA849_OUTAMP.N1401213 X_U1.MID
+ X_U1.X_INA849_OUTAMP.R_NOISELESS 1
X_U1.X_INA849_OUTAMP.R_RCM8 X_U1.X_INA849_OUTAMP.N1401349 X_U1.MID
+ X_U1.X_INA849_OUTAMP.R_NOISELESS 1T
X_U1.X_INA849_OUTAMP.R_RDUMMY X_U1.MID X_U1.X_INA849_OUTAMP.OUT_NODE
+ X_U1.X_INA849_OUTAMP.R_NOISELESS 50K
X_U1.X_INA849_OUTAMP.R_RIN2_CMN X_U1.MID X_U1.X_INA849_OUTAMP.N953203
+ X_U1.X_INA849_OUTAMP.R_NOISELESS 1T
X_U1.X_INA849_OUTAMP.R_RIN2_CMP X_U1.X_INA849_OUTAMP.N953165 X_U1.MID
+ X_U1.X_INA849_OUTAMP.R_NOISELESS 1T
X_U1.X_INA849_OUTAMP.R_RIN3 X_U1.X_INA849_OUTAMP.N953165
+ X_U1.N1604573 X_U1.X_INA849_OUTAMP.R_NOISELESS 10M
X_U1.X_INA849_OUTAMP.R_RIN4 X_U1.X_INA849_OUTAMP.N953203
+ X_U1.N1604535 X_U1.X_INA849_OUTAMP.R_NOISELESS 10M
X_U1.X_INA849_OUTAMP.R_RO1 X_U1.MID X_U1.X_INA849_OUTAMP.N261787
+ X_U1.X_INA849_OUTAMP.R_NOISELESS 1MEG
X_U1.X_INA849_OUTAMP.R_RO2 X_U1.MID X_U1.X_INA849_OUTAMP.CLAMP
+ X_U1.X_INA849_OUTAMP.R_NOISELESS 1MEG
X_U1.X_INA849_OUTAMP.R_RP1 X_U1.X_INA849_OUTAMP.N1389061
+ X_U1.X_INA849_OUTAMP.N1389051 X_U1.X_INA849_OUTAMP.R_NOISELESS
+ 100MEG
X_U1.X_INA849_OUTAMP.R_RP10 X_U1.X_INA849_OUTAMP.N1388129 X_U1.MID
+ X_U1.X_INA849_OUTAMP.R_NOISELESS 638.3
X_U1.X_INA849_OUTAMP.R_RP11 X_U1.X_INA849_OUTAMP.N1388139
+ X_U1.X_INA849_OUTAMP.N1388149 X_U1.X_INA849_OUTAMP.R_NOISELESS 90K
X_U1.X_INA849_OUTAMP.R_RP12 X_U1.X_INA849_OUTAMP.N1388149
+ X_U1.X_INA849_OUTAMP.N1388615 X_U1.X_INA849_OUTAMP.R_NOISELESS 10K
X_U1.X_INA849_OUTAMP.R_RP13 X_U1.X_INA849_OUTAMP.N1388167
+ X_U1.X_INA849_OUTAMP.N1388177 X_U1.X_INA849_OUTAMP.R_NOISELESS 90K
X_U1.X_INA849_OUTAMP.R_RP14 X_U1.X_INA849_OUTAMP.N1388177
+ X_U1.X_INA849_OUTAMP.N1388629 X_U1.X_INA849_OUTAMP.R_NOISELESS 10K
X_U1.X_INA849_OUTAMP.R_RP2 X_U1.X_INA849_OUTAMP.N1389061 X_U1.MID
+ X_U1.X_INA849_OUTAMP.R_NOISELESS 55
X_U1.X_INA849_OUTAMP.R_RP3 X_U1.X_INA849_OUTAMP.N1389071
+ X_U1.X_INA849_OUTAMP.N1389081 X_U1.X_INA849_OUTAMP.R_NOISELESS 290K
X_U1.X_INA849_OUTAMP.R_RP4 X_U1.X_INA849_OUTAMP.N1389081
+ X_U1.X_INA849_OUTAMP.N1389297 X_U1.X_INA849_OUTAMP.R_NOISELESS 10K
X_U1.X_INA849_OUTAMP.R_RP5 X_U1.X_INA849_OUTAMP.N1388089
+ X_U1.X_INA849_OUTAMP.N1388079 X_U1.X_INA849_OUTAMP.R_NOISELESS
+ 100MEG
X_U1.X_INA849_OUTAMP.R_RP6 X_U1.X_INA849_OUTAMP.N1388089 X_U1.MID
+ X_U1.X_INA849_OUTAMP.R_NOISELESS 9.5K
X_U1.X_INA849_OUTAMP.R_RP7 X_U1.X_INA849_OUTAMP.N1388109
+ X_U1.X_INA849_OUTAMP.N1388099 X_U1.X_INA849_OUTAMP.R_NOISELESS 10K
X_U1.X_INA849_OUTAMP.R_RP8 X_U1.X_INA849_OUTAMP.N1388109 X_U1.MID
+ X_U1.X_INA849_OUTAMP.R_NOISELESS 638.3
X_U1.X_INA849_OUTAMP.R_RP9 X_U1.X_INA849_OUTAMP.N1388129
+ X_U1.X_INA849_OUTAMP.N1388119 X_U1.X_INA849_OUTAMP.R_NOISELESS 10K
X_U1.X_INA849_OUTAMP.R_RSRC X_U1.MID X_U1.X_INA849_OUTAMP.N1389051
+ X_U1.X_INA849_OUTAMP.R_NOISELESS 1
X_U1.X_INA849_OUTAMP.R_RSRC1 X_U1.MID X_U1.X_INA849_OUTAMP.N1389071
+ X_U1.X_INA849_OUTAMP.R_NOISELESS 1
X_U1.X_INA849_OUTAMP.R_RSRC2 X_U1.MID X_U1.X_INA849_OUTAMP.PSRR+
+ X_U1.X_INA849_OUTAMP.R_NOISELESS 1
X_U1.X_INA849_OUTAMP.R_RSRC3 X_U1.MID X_U1.X_INA849_OUTAMP.N1388079
+ X_U1.X_INA849_OUTAMP.R_NOISELESS 1
X_U1.X_INA849_OUTAMP.R_RSRC4 X_U1.MID X_U1.X_INA849_OUTAMP.N1388099
+ X_U1.X_INA849_OUTAMP.R_NOISELESS 1
X_U1.X_INA849_OUTAMP.R_RSRC5 X_U1.MID X_U1.X_INA849_OUTAMP.N1388119
+ X_U1.X_INA849_OUTAMP.R_NOISELESS 1
X_U1.X_INA849_OUTAMP.R_RSRC6 X_U1.MID X_U1.X_INA849_OUTAMP.N1388139
+ X_U1.X_INA849_OUTAMP.R_NOISELESS 1
X_U1.X_INA849_OUTAMP.R_RSRC7 X_U1.MID X_U1.X_INA849_OUTAMP.N1388167
+ X_U1.X_INA849_OUTAMP.R_NOISELESS 1
X_U1.X_INA849_OUTAMP.R_RSRC8 X_U1.MID X_U1.X_INA849_OUTAMP.PSRR-
+ X_U1.X_INA849_OUTAMP.R_NOISELESS 1
X_U1.X_INA849_OUTAMP.R_RX X_U1.X_INA849_OUTAMP.OUT_NODE
+ X_U1.X_INA849_OUTAMP.N1940296 X_U1.X_INA849_OUTAMP.R_NOISELESS 500K
X_U1.X_INA849_OUTAMP.R_R_VIMON21 X_U1.MID
+ X_U1.X_INA849_OUTAMP.N989282 X_U1.X_INA849_OUTAMP.R_NOISELESS 1T
X_U1.X_INA849_OUTAMP.R_R_VIMON22 X_U1.X_INA849_OUTAMP.N989282
+ X_U1.X_INA849_OUTAMP.VIMON X_U1.X_INA849_OUTAMP.R_NOISELESS 100
X_U1.X_INA849_OUTAMP.R_VOUTS1 X_U1.MID X_U1.X_INA849_OUTAMP.N1403176
+ X_U1.X_INA849_OUTAMP.R_NOISELESS 1T
X_U1.X_INA849_OUTAMP.R_VOUTS2 X_U1.X_INA849_OUTAMP.VOUT_S
+ X_U1.X_INA849_OUTAMP.N1403176 X_U1.X_INA849_OUTAMP.R_NOISELESS 100
X_U1.X_INA849_OUTAMP.V_VCM_MAX2 X_U1.X_INA849_OUTAMP.N1401129
+ X_U1.VCC_B -2VDC
X_U1.X_INA849_OUTAMP.V_VCM_MIN2 X_U1.X_INA849_OUTAMP.N1401349
+ X_U1.VEE_B 2VDC
X_U1.X_INA849_OUTAMP.V_V_GRN X_U1.X_INA849_OUTAMP.N1664265 X_U1.MID
+ -220VDC
X_U1.X_INA849_OUTAMP.V_V_GRP X_U1.X_INA849_OUTAMP.N1663665 X_U1.MID
+ 220VDC
X_U1.X_INA849_OUTAMP.V_V_ISCN X_U1.X_INA849_OUTAMP.N1664201 X_U1.MID
+ -34VDC
X_U1.X_INA849_OUTAMP.V_V_ISCP X_U1.X_INA849_OUTAMP.N1663647 X_U1.MID
+ 34VDC
X_U1.X_INA849_OUTAMP.X_H_IMON X_U1.X_INA849_OUTAMP.OUT_NODE OUT
+ X_U1.X_INA849_OUTAMP.N989282 X_U1.MID
+ OUTAMP_BLOCK_DC_H_IMON_INA849_OUTAMP
X_U1.X_INA849_OUTAMP.X_U1 PARAMS X_U1.FLW 150M X_U1.NLF 524.25
+ X_U1.NVR 21 X_U1.X_INA849_OUTAMP.N953165
+ X_U1.X_INA849_OUTAMP.N2052331 VNSE1_INA849_OUTAMP
X_U1.X_INA849_OUTAMP.X_U10 PARAMS X_U10.GAIN 1
+ X_U1.X_INA849_OUTAMP.N1394772 X_U1.MID
+ X_U1.X_INA849_OUTAMP.N1401213 X_U1.MID
+ X_U1.X_INA849_OUTAMP.N1401129 X_U1.X_INA849_OUTAMP.N1401349
+ VCM_CLAMP_INA849_OUTAMP
X_U1.X_INA849_OUTAMP.X_U11 X_U1.X_INA849_OUTAMP.VIMON X_U1.MID
+ X_U1.X_INA849_OUTAMP.N1661302 X_U1.VCC_B CLAWP_INA849_OUTAMP
X_U1.X_INA849_OUTAMP.X_U12 X_U1.MID X_U1.X_INA849_OUTAMP.VIMON
+ X_U1.VEE_B X_U1.X_INA849_OUTAMP.N1661612 CLAWN_INA849_OUTAMP
X_U1.X_INA849_OUTAMP.X_U13 PARAMS X_U13.G 25
+ X_U1.X_INA849_OUTAMP.VCC_CLP X_U1.X_INA849_OUTAMP.VEE_CLP
+ X_U1.X_INA849_OUTAMP.VOUT_S X_U1.MID X_U1.X_INA849_OUTAMP.N1661466
+ X_U1.X_INA849_OUTAMP.N1661666 CLAMP_AMP_LO_INA849_OUTAMP
X_U1.X_INA849_OUTAMP.X_U14 PARAMS X_U14.GAIN 1 X_U14.IPOS 500M
+ X_U14.INEG -500M X_U1.X_INA849_OUTAMP.N1661462
+ X_U1.X_INA849_OUTAMP.N1661680 X_U1.X_INA849_OUTAMP.CLAW_CLAMP_OP
+ X_U1.MID CLAW_SRC_INA849_OUTAMP
X_U1.X_INA849_OUTAMP.X_U15 PARAMS X_U15.G 25
+ X_U1.X_INA849_OUTAMP.N1663647 X_U1.X_INA849_OUTAMP.N1664201
+ X_U1.X_INA849_OUTAMP.VOUT_S X_U1.MID X_U1.X_INA849_OUTAMP.N1663805
+ X_U1.X_INA849_OUTAMP.N1664077 CLAMP_AMP_LO_INA849_OUTAMP
X_U1.X_INA849_OUTAMP.X_U16 PARAMS X_U16.GAIN 1 X_U16.IPOS 1
+ X_U16.INEG -1 X_U1.X_INA849_OUTAMP.N1663763
+ X_U1.X_INA849_OUTAMP.N1664091 X_U1.X_INA849_OUTAMP.CL_CLAMP_OP
+ X_U1.MID CL_SRC_INA849_OUTAMP
X_U1.X_INA849_OUTAMP.X_U17 PARAMS X_U17.G 500
+ X_U1.X_INA849_OUTAMP.N1663665 X_U1.X_INA849_OUTAMP.N1664265
+ X_U1.X_INA849_OUTAMP.VSENSE X_U1.MID X_U1.X_INA849_OUTAMP.N1663951
+ X_U1.X_INA849_OUTAMP.N1664165 CLAMP_AMP_HI_INA849_OUTAMP
X_U1.X_INA849_OUTAMP.X_U18 PARAMS X_U18.GAIN 1 X_U18.IPOS 70
+ X_U18.INEG -70 X_U1.X_INA849_OUTAMP.N1663947
+ X_U1.X_INA849_OUTAMP.N1664179 X_U1.X_INA849_OUTAMP.CLAMP X_U1.MID
+ GR_SRC_INA849_OUTAMP
X_U1.X_INA849_OUTAMP.X_U19 PARAMS X_U19.DC 5U X_U19.POL 1 X_U19.DRIFT
+ 1U X_U1.X_INA849_OUTAMP.N2052331 X_U1.X_INA849_OUTAMP.N1394706
+ VOS_DRIFT_INA849_OUTAMP
X_U1.X_INA849_OUTAMP.X_U20 OUT VCC VEE ESD_OUT_INA849_OUTAMP
X_U1.X_INA849_OUTAMP.X_U23 PARAMS X_U23.GAIN 20 X_U23.IPOS 35E3
+ X_U23.INEG -35E3 X_U1.X_INA849_OUTAMP.N1939580 X_U1.MID X_U1.MID
+ X_U1.X_INA849_OUTAMP.N1940296 ZO_SRC_INA849_OUTAMP
X_U1.X_INA849_OUTAMP.X_U4 PARAMS X_U4.GAIN 1E-4 X_U4.IPOS .5
+ X_U4.INEG -.5 X_U1.X_INA849_OUTAMP.N995776
+ X_U1.X_INA849_OUTAMP.N953203 X_U1.MID X_U1.X_INA849_OUTAMP.N261787
+ AOL_1_INA849_OUTAMP
X_U1.X_INA849_OUTAMP.X_U5 PARAMS X_U5.GAIN 6.128 X_U5.IPOS 31.7
+ X_U5.INEG -31.7 X_U1.X_INA849_OUTAMP.N261787 X_U1.MID X_U1.MID
+ X_U1.X_INA849_OUTAMP.CLAMP AOL_2_INA849_OUTAMP
X_U1.X_INA849_OUTAMP.X_U_OUTAMP_IQN PARAMS X_U_OUTAMP_IQN.GAIN 1E-3
+ X_U1.MID X_U1.X_INA849_OUTAMP.VIMON VEE X_U1.MID
+ IQ_SRC_INA849_OUTAMP
X_U1.X_INA849_OUTAMP.X_U_OUTAMP_IQP PARAMS X_U_OUTAMP_IQP.GAIN 1E-3
+ X_U1.X_INA849_OUTAMP.VIMON X_U1.MID X_U1.MID VCC
+ IQ_SRC_INA849_OUTAMP


**** EXPANSION OF SUBCIRCUIT X_U1.X_U1 ****
.PARAM GLF {PWR(FLW,0.25)*NLF/1164}
.PARAM RNV {1.184*PWR(NVR,2)}
.MODEL X_U1.X_U1.DVN D KF {PWR(FLW,0.5)/1E11} IS 1.0E-16
X_U1.X_U1.I1 0 X_U1.X_U1.7 10E-3
X_U1.X_U1.I2 0 X_U1.X_U1.8 10E-3
X_U1.X_U1.D1 X_U1.X_U1.7 0 X_U1.X_U1.DVN
X_U1.X_U1.D2 X_U1.X_U1.8 0 X_U1.X_U1.DVN
X_U1.X_U1.E1 X_U1.X_U1.3 X_U1.X_U1.6 X_U1.X_U1.7 X_U1.X_U1.8 {GLF}
X_U1.X_U1.R1 X_U1.X_U1.3 0 1E9
X_U1.X_U1.R2 X_U1.X_U1.3 0 1E9
X_U1.X_U1.R3 X_U1.X_U1.3 X_U1.X_U1.6 1E9
X_U1.X_U1.E2 X_U1.X_U1.6 X_U1.X_U1.4 X_U1.X_U1.5 0 10
X_U1.X_U1.R4 X_U1.X_U1.5 0 {RNV}
X_U1.X_U1.R5 X_U1.X_U1.5 0 {RNV}
X_U1.X_U1.R6 X_U1.X_U1.3 X_U1.X_U1.4 1E9
X_U1.X_U1.R7 X_U1.X_U1.4 0 1E9
X_U1.X_U1.E3 X_U1.ESDP X_U1.N1383401 X_U1.X_U1.3 X_U1.X_U1.4 1


**** EXPANSION OF SUBCIRCUIT X_U1.X_U10 ****
X_U1.X_U10.G1 X_U1.MID X_U1.N1385582 VALUE {LIMIT(GAIN*V(0#,1#),V(5#,1#),
+  V(4#,1#))}


**** EXPANSION OF SUBCIRCUIT X_U1.X_U11 ****
X_U1.X_U11.G1 X_U1.MID X_U1.N1386314 VALUE {LIMIT(GAIN*V(0#,1#),V(5#,1#),
+  V(4#,1#))}


**** EXPANSION OF SUBCIRCUIT X_U1.X_U12 ****
.MODEL X_U1.X_U12.ESD_SW VSWITCH RON 50 ROFF 1E12 VON 500E-3 VOFF
+ 100E-3
X_U1.X_U12.S1 VCC N1641977 N1641977 VCC X_U1.X_U12.ESD_SW
X_U1.X_U12.S2 N1641977 VEE VEE N1641977 X_U1.X_U12.ESD_SW


**** EXPANSION OF SUBCIRCUIT X_U1.X_U13 ****
.MODEL X_U1.X_U13.ESD_SW VSWITCH RON 50 ROFF 1E12 VON 500E-3 VOFF
+ 100E-3
X_U1.X_U13.S1 VCC N1641887 N1641887 VCC X_U1.X_U13.ESD_SW
X_U1.X_U13.S2 N1641887 VEE VEE N1641887 X_U1.X_U13.ESD_SW


**** EXPANSION OF SUBCIRCUIT X_U1.X_U14 ****
.MODEL X_U1.X_U14.ESD_SW VSWITCH RON 50 ROFF 1E12 VON 500E-3 VOFF
+ 100E-3
X_U1.X_U14.S1 VCC REF REF VCC X_U1.X_U14.ESD_SW
X_U1.X_U14.S2 REF VEE VEE REF X_U1.X_U14.ESD_SW


**** EXPANSION OF SUBCIRCUIT X_U1.X_U15 ****
.MODEL X_U1.X_U15.ESD_SW VSWITCH RON 50 ROFF 1E12 VON 500E-3 VOFF
+ 100E-3
X_U1.X_U15.S1 VCC OUT OUT VCC X_U1.X_U15.ESD_SW
X_U1.X_U15.S2 OUT VEE VEE OUT X_U1.X_U15.ESD_SW


**** EXPANSION OF SUBCIRCUIT X_U1.X_U16 ****
.PARAM GLF {PWR(FLW,0.25)*NLF/1164}
.PARAM RNV {1.184*PWR(NVR,2)}
.MODEL X_U1.X_U16.DVN D KF {PWR(FLW,0.5)/1E11} IS 1.0E-16
X_U1.X_U16.I1 0 X_U1.X_U16.7 10E-3
X_U1.X_U16.I2 0 X_U1.X_U16.8 10E-3
X_U1.X_U16.D1 X_U1.X_U16.7 0 X_U1.X_U16.DVN
X_U1.X_U16.D2 X_U1.X_U16.8 0 X_U1.X_U16.DVN
X_U1.X_U16.E1 X_U1.X_U16.3 X_U1.X_U16.6 X_U1.X_U16.7 X_U1.X_U16.8 {GLF}
X_U1.X_U16.R1 X_U1.X_U16.3 0 1E9
X_U1.X_U16.R2 X_U1.X_U16.3 0 1E9
X_U1.X_U16.R3 X_U1.X_U16.3 X_U1.X_U16.6 1E9
X_U1.X_U16.E2 X_U1.X_U16.6 X_U1.X_U16.4 X_U1.X_U16.5 0 10
X_U1.X_U16.R4 X_U1.X_U16.5 0 {RNV}
X_U1.X_U16.R5 X_U1.X_U16.5 0 {RNV}
X_U1.X_U16.R6 X_U1.X_U16.3 X_U1.X_U16.4 1E9
X_U1.X_U16.R7 X_U1.X_U16.4 0 1E9
X_U1.X_U16.E3 X_U1.ESDN X_U1.N1383384 X_U1.X_U16.3 X_U1.X_U16.4 1


**** EXPANSION OF SUBCIRCUIT X_U1.X_U3 ****
.MODEL X_U1.X_U3.ESD_SW VSWITCH RON 50 ROFF 1E12 VON 500E-3 VOFF
+ 100E-3
X_U1.X_U3.S1 VCC X_U1.ESDP X_U1.ESDP VCC X_U1.X_U3.ESD_SW
X_U1.X_U3.S2 X_U1.ESDP VEE VEE X_U1.ESDP X_U1.X_U3.ESD_SW


**** EXPANSION OF SUBCIRCUIT X_U1.X_U4 ****
.MODEL X_U1.X_U4.ESD_SW VSWITCH RON 50 ROFF 1E12 VON 500E-3 VOFF
+ 100E-3
X_U1.X_U4.S1 VCC X_U1.ESDN X_U1.ESDN VCC X_U1.X_U4.ESD_SW
X_U1.X_U4.S2 X_U1.ESDN VEE VEE X_U1.ESDN X_U1.X_U4.ESD_SW


**** EXPANSION OF SUBCIRCUIT X_U1.X_U7 ****
.PARAM GLFF {PWR(FLWF,0.25)*NLFF/1164}
.PARAM RNVF {1.184*PWR(NVRF,2)}
.MODEL X_U1.X_U7.DVNF D KF {PWR(FLWF,0.5)/1E11} IS 1.0E-16
X_U1.X_U7.I1 0 X_U1.X_U7.7 10E-3
X_U1.X_U7.I2 0 X_U1.X_U7.8 10E-3
X_U1.X_U7.D1 X_U1.X_U7.7 0 X_U1.X_U7.DVNF
X_U1.X_U7.D2 X_U1.X_U7.8 0 X_U1.X_U7.DVNF
X_U1.X_U7.E1 X_U1.X_U7.3 X_U1.X_U7.6 X_U1.X_U7.7 X_U1.X_U7.8 {GLFF}
X_U1.X_U7.R1 X_U1.X_U7.3 0 1E9
X_U1.X_U7.R2 X_U1.X_U7.3 0 1E9
X_U1.X_U7.R3 X_U1.X_U7.3 X_U1.X_U7.6 1E9
X_U1.X_U7.E2 X_U1.X_U7.6 X_U1.X_U7.4 X_U1.X_U7.5 0 10
X_U1.X_U7.R4 X_U1.X_U7.5 0 {RNVF}
X_U1.X_U7.R5 X_U1.X_U7.5 0 {RNVF}
X_U1.X_U7.R6 X_U1.X_U7.3 X_U1.X_U7.4 1E9
X_U1.X_U7.R7 X_U1.X_U7.4 0 1E9
X_U1.X_U7.G1 X_U1.MID X_U1.N1383401 X_U1.X_U7.3 X_U1.X_U7.4 1E-6
X_U1.X_U7.C1 X_U1.MID 0 1E-15
X_U1.X_U7.C2 X_U1.N1383401 0 1E-15
X_U1.X_U7.C3 X_U1.MID X_U1.N1383401 1E-15


**** EXPANSION OF SUBCIRCUIT X_U1.X_U8 ****
.PARAM GLFF {PWR(FLWF,0.25)*NLFF/1164}
.PARAM RNVF {1.184*PWR(NVRF,2)}
.MODEL X_U1.X_U8.DVNF D KF {PWR(FLWF,0.5)/1E11} IS 1.0E-16
X_U1.X_U8.I1 0 X_U1.X_U8.7 10E-3
X_U1.X_U8.I2 0 X_U1.X_U8.8 10E-3
X_U1.X_U8.D1 X_U1.X_U8.7 0 X_U1.X_U8.DVNF
X_U1.X_U8.D2 X_U1.X_U8.8 0 X_U1.X_U8.DVNF
X_U1.X_U8.E1 X_U1.X_U8.3 X_U1.X_U8.6 X_U1.X_U8.7 X_U1.X_U8.8 {GLFF}
X_U1.X_U8.R1 X_U1.X_U8.3 0 1E9
X_U1.X_U8.R2 X_U1.X_U8.3 0 1E9
X_U1.X_U8.R3 X_U1.X_U8.3 X_U1.X_U8.6 1E9
X_U1.X_U8.E2 X_U1.X_U8.6 X_U1.X_U8.4 X_U1.X_U8.5 0 10
X_U1.X_U8.R4 X_U1.X_U8.5 0 {RNVF}
X_U1.X_U8.R5 X_U1.X_U8.5 0 {RNVF}
X_U1.X_U8.R6 X_U1.X_U8.3 X_U1.X_U8.4 1E9
X_U1.X_U8.R7 X_U1.X_U8.4 0 1E9
X_U1.X_U8.G1 X_U1.N1383384 X_U1.MID X_U1.X_U8.3 X_U1.X_U8.4 1E-6
X_U1.X_U8.C1 X_U1.N1383384 0 1E-15
X_U1.X_U8.C2 X_U1.MID 0 1E-15
X_U1.X_U8.C3 X_U1.N1383384 X_U1.MID 1E-15


**** EXPANSION OF SUBCIRCUIT X_U1.X_U9 ****
X_U1.X_U9.E1 X_U1.N1384032 X_U1.N1383401 VALUE {DC+POL*DRIFT*(TEMP-27)}

**** FROM LIBRARY ../../../ina849.lib ****
.SUBCKT INA849_INAMP_H_IMON11 1 2 3 4  
H_H_IMON11         3 4 VH_H_IMON11 1K
VH_H_IMON11         1 2 0V
.ENDS  INA849_INAMP_H_IMON11

.SUBCKT AOL_1_INA849_INAMP VC+ VC- IOUT+ IOUT- PARAMS: GAIN=1E-4 IPOS=.5 INEG=-.5
G1 IOUT+ IOUT- VALUE={LIMIT(GAIN*V(VC+,VC-),INEG,IPOS)}
.ENDS  AOL_1_INA849_INAMP

.SUBCKT AOL_2_INA849_INAMP VC+ VC- IOUT+ IOUT- PARAMS: GAIN=20.36E-3 IPOS=0.163 INEG=-0.163
G1 IOUT+ IOUT- VALUE={LIMIT(GAIN*V(VC+,VC-),INEG,IPOS)}
.ENDS  AOL_2_INA849_INAMP

.SUBCKT IQ_SRC_INA849_INAMP VC+ VC- IOUT+ IOUT- PARAMS: GAIN=1E-3
G1 IOUT+ IOUT- VALUE={IF( (V(VC+,VC-)<=0),0,GAIN*V(VC+,VC-) )}
.ENDS  IQ_SRC_INA849_INAMP

.SUBCKT OUTAMP_BLOCK_DC_H_IMON_INA849_OUTAMP 1 2 3 4  
H_H_IMON         3 4 VH_H_IMON 1K
VH_H_IMON         1 2 0V
.ENDS  OUTAMP_BLOCK_DC_H_IMON_INA849_OUTAMP

.SUBCKT VNSE1_INA849_OUTAMP 1 2 PARAMS: FLW=1 NLF=120 NVR=18
.PARAM GLF={PWR(FLW,0.25)*NLF/1164}
.PARAM RNV={1.184*PWR(NVR,2)}
.MODEL DVN D KF={PWR(FLW,0.5)/1E11} IS=1.0E-16
I1 0 7 10E-3
I2 0 8 10E-3
D1 7 0 DVN
D2 8 0 DVN
E1 3 6 7 8 {GLF}
R1 3 0 1E9
R2 3 0 1E9
R3 3 6 1E9
E2 6 4 5 0 10
R4 5 0 {RNV}
R5 5 0 {RNV}
R6 3 4 1E9
R7 4 0 1E9
E3 1 2 3 4 1
.ENDS  VNSE1_INA849_OUTAMP

.SUBCKT VCM_CLAMP_INA849_OUTAMP VIN+ VIN- IOUT- IOUT+ VP+ VP- PARAMS: GAIN=1
G1 IOUT+ IOUT- VALUE={LIMIT(GAIN*V(VIN+,VIN-),V(VP-,VIN-), V(VP+,VIN-))}
.ENDS  VCM_CLAMP_INA849_OUTAMP

.SUBCKT CLAWP_INA849_OUTAMP VC+ VC- IOUT+ IOUT-
G1 IOUT+ IOUT- TABLE {(V(VC+,VC-))} =
+(0, 9.41E-5)
+(4, 1.66E-4)
+(10, 2.42E-4)
+(14, 3.41E-4)
+(18, 4.78E-4)
+(20, 5.60E-4)
+(22, 6.72E-4)
+(23, 7.69E-4)
+(24, 9.16E-4)
+(25, 1.11E-3)
+(34, 1.45E-2)
.ENDS  CLAWP_INA849_OUTAMP

.SUBCKT CLAWN_INA849_OUTAMP VC+ VC- IOUT+ IOUT-
G1 IOUT+ IOUT- TABLE {(V(VC+,VC-))} =
+(0, 4.91E-5)
+(4, 1.09E-4)
+(10, 1.66E-4)
+(14, 2.27E-4)
+(18, 3.20E-4)
+(20, 4.56E-4)
+(21, 6.63E-4)
+(22, 9.86E-4)
+(23, 1.42E-3)
+(34, 1.45E-2)
.ENDS  CLAWN_INA849_OUTAMP

.SUBCKT CLAMP_AMP_LO_INA849_OUTAMP VC+ VC- VIN COM VO+ VO- PARAMS: G=1
GVO+ COM VO+ VALUE = {IF(V(VIN,COM)>V(VC+,COM),((V(VIN,COM)-V(VC+,COM))*G),0)}
GVO- COM VO- VALUE = {IF(V(VIN,COM)<V(VC-,COM),((V(VC-,COM)-V(VIN,COM))*G),0)}
.ENDS  CLAMP_AMP_LO_INA849_OUTAMP

.SUBCKT CLAW_SRC_INA849_OUTAMP VC+ VC- IOUT+ IOUT- PARAMS: GAIN=1 IPOS=0.226E1 INEG=-0.226E1
G1 IOUT+ IOUT- VALUE={LIMIT(GAIN*V(VC+,VC-),INEG,IPOS)}
.ENDS  CLAW_SRC_INA849_OUTAMP

.SUBCKT CL_SRC_INA849_OUTAMP VC+ VC- IOUT+ IOUT- PARAMS: GAIN=1 IPOS=0.452E1 INEG=-0.452E1
G1 IOUT+ IOUT- VALUE={LIMIT(GAIN*V(VC+,VC-),INEG,IPOS)}
.ENDS  CL_SRC_INA849_OUTAMP

.SUBCKT CLAMP_AMP_HI_INA849_OUTAMP VC+ VC- VIN COM VO+ VO- PARAMS: G=10
GVO+ COM VO+ VALUE = {IF(V(VIN,COM)>V(VC+,COM),((V(VIN,COM)-V(VC+,COM))*G),0)}
GVO- COM VO- VALUE = {IF(V(VIN,COM)<V(VC-,COM),((V(VC-,COM)-V(VIN,COM))*G),0)}
.ENDS  CLAMP_AMP_HI_INA849_OUTAMP

.SUBCKT GR_SRC_INA849_OUTAMP VC+ VC- IOUT+ IOUT- PARAMS: GAIN=1 IPOS=0.326E1 INEG=-0.326E1
G1 IOUT+ IOUT- VALUE={LIMIT(GAIN*V(VC+,VC-),INEG,IPOS)}
.ENDS  GR_SRC_INA849_OUTAMP

.SUBCKT VOS_DRIFT_INA849_OUTAMP VOS+ VOS- PARAMS: DC=496.4E-6 POL=1 DRIFT=2E-06
E1 VOS+ VOS- VALUE={DC+POL*DRIFT*(TEMP-27)}
.ENDS  VOS_DRIFT_INA849_OUTAMP

.SUBCKT ESD_OUT_INA849_OUTAMP OUT VCC VEE
.MODEL ESD_SW VSWITCH(RON=50 ROFF=1E12 VON=500E-3 VOFF=100E-3)
S1 VCC OUT OUT VCC ESD_SW
S2 OUT VEE VEE OUT ESD_SW
.ENDS  ESD_OUT_INA849_OUTAMP

.SUBCKT ZO_SRC_INA849_OUTAMP VC+ VC- IOUT+ IOUT- PARAMS: GAIN=200 IPOS=14.5E5 INEG=-14.5E5
G1 IOUT+ IOUT- VALUE={LIMIT(GAIN*V(VC+,VC-),INEG,IPOS)}
.ENDS  ZO_SRC_INA849_OUTAMP

.SUBCKT AOL_1_INA849_OUTAMP VC+ VC- IOUT+ IOUT- PARAMS: GAIN=1E-4 IPOS=.5 INEG=-.5
G1 IOUT+ IOUT- VALUE={LIMIT(GAIN*V(VC+,VC-),INEG,IPOS)}
.ENDS  AOL_1_INA849_OUTAMP

.SUBCKT AOL_2_INA849_OUTAMP VC+ VC- IOUT+ IOUT- PARAMS: GAIN=20.36E-3 IPOS=0.163 INEG=-0.163
G1 IOUT+ IOUT- VALUE={LIMIT(GAIN*V(VC+,VC-),INEG,IPOS)}
.ENDS  AOL_2_INA849_OUTAMP

.SUBCKT IQ_SRC_INA849_OUTAMP VC+ VC- IOUT+ IOUT- PARAMS: GAIN=1E-3
G1 IOUT+ IOUT- VALUE={IF( (V(VC+,VC-)<=0),0,GAIN*V(VC+,VC-) )}
.ENDS  IQ_SRC_INA849_OUTAMP


**** EXPANSION OF SUBCIRCUIT X_U1.X_INA849_INAMP0.X_H_IMON11 ****
X_U1.X_INA849_INAMP0.X_H_IMON11.H_H_IMON11
+ X_U1.X_INA849_INAMP0.N970369 X_U1.MID
+ X_U1.X_INA849_INAMP0.X_H_IMON11.VH_H_IMON11 1K
X_U1.X_INA849_INAMP0.X_H_IMON11.VH_H_IMON11
+ X_U1.X_INA849_INAMP0.N256819 X_U1.NODE1 0V


**** EXPANSION OF SUBCIRCUIT X_U1.X_INA849_INAMP0.X_U2 ****
X_U1.X_INA849_INAMP0.X_U2.G1 X_U1.MID X_U1.X_INA849_INAMP0.N261786
+ VALUE {LIMIT(GAIN*V(0#,1#),INEG,IPOS)}


**** EXPANSION OF SUBCIRCUIT X_U1.X_INA849_INAMP0.X_U3 ****
X_U1.X_INA849_INAMP0.X_U3.G1 X_U1.MID X_U1.X_INA849_INAMP0.CLAMP1
+ VALUE {LIMIT(GAIN*V(0#,1#),INEG,IPOS)}


**** EXPANSION OF SUBCIRCUIT X_U1.X_INA849_INAMP0.X_U_INAMP_IQN ****
X_U1.X_INA849_INAMP0.X_U_INAMP_IQN.G1 VEE X_U1.MID VALUE {IF( (V(0#,1#)<=0),
+ 0,GAIN*V(0#,1#) )}


**** EXPANSION OF SUBCIRCUIT X_U1.X_INA849_INAMP0.X_U_INAMP_IQP ****
X_U1.X_INA849_INAMP0.X_U_INAMP_IQP.G1 X_U1.MID VCC VALUE {IF( (V(0#,1#)<=0),
+ 0,GAIN*V(0#,1#) )}


**** EXPANSION OF SUBCIRCUIT X_U1.X_INA849_INAMP1.X_H_IMON11 ****
X_U1.X_INA849_INAMP1.X_H_IMON11.H_H_IMON11
+ X_U1.X_INA849_INAMP1.N970369 X_U1.MID
+ X_U1.X_INA849_INAMP1.X_H_IMON11.VH_H_IMON11 1K
X_U1.X_INA849_INAMP1.X_H_IMON11.VH_H_IMON11
+ X_U1.X_INA849_INAMP1.N256819 X_U1.NODE2 0V


**** EXPANSION OF SUBCIRCUIT X_U1.X_INA849_INAMP1.X_U2 ****
X_U1.X_INA849_INAMP1.X_U2.G1 X_U1.MID X_U1.X_INA849_INAMP1.N261786
+ VALUE {LIMIT(GAIN*V(0#,1#),INEG,IPOS)}


**** EXPANSION OF SUBCIRCUIT X_U1.X_INA849_INAMP1.X_U3 ****
X_U1.X_INA849_INAMP1.X_U3.G1 X_U1.MID X_U1.X_INA849_INAMP1.CLAMP1
+ VALUE {LIMIT(GAIN*V(0#,1#),INEG,IPOS)}


**** EXPANSION OF SUBCIRCUIT X_U1.X_INA849_INAMP1.X_U_INAMP_IQN ****
X_U1.X_INA849_INAMP1.X_U_INAMP_IQN.G1 VEE X_U1.MID VALUE {IF( (V(0#,1#)<=0),
+ 0,GAIN*V(0#,1#) )}


**** EXPANSION OF SUBCIRCUIT X_U1.X_INA849_INAMP1.X_U_INAMP_IQP ****
X_U1.X_INA849_INAMP1.X_U_INAMP_IQP.G1 X_U1.MID VCC VALUE {IF( (V(0#,1#)<=0),
+ 0,GAIN*V(0#,1#) )}


**** EXPANSION OF SUBCIRCUIT X_U1.X_INA849_OUTAMP.X_H_IMON ****
X_U1.X_INA849_OUTAMP.X_H_IMON.H_H_IMON X_U1.X_INA849_OUTAMP.N989282
+ X_U1.MID X_U1.X_INA849_OUTAMP.X_H_IMON.VH_H_IMON 1K
X_U1.X_INA849_OUTAMP.X_H_IMON.VH_H_IMON X_U1.X_INA849_OUTAMP.OUT_NODE
+ OUT 0V


**** EXPANSION OF SUBCIRCUIT X_U1.X_INA849_OUTAMP.X_U1 ****
.PARAM GLF {PWR(FLW,0.25)*NLF/1164}
.PARAM RNV {1.184*PWR(NVR,2)}
.MODEL X_U1.X_INA849_OUTAMP.X_U1.DVN D KF {PWR(FLW,0.5)/1E11} IS
+ 1.0E-16
X_U1.X_INA849_OUTAMP.X_U1.I1 0 X_U1.X_INA849_OUTAMP.X_U1.7 10E-3
X_U1.X_INA849_OUTAMP.X_U1.I2 0 X_U1.X_INA849_OUTAMP.X_U1.8 10E-3
X_U1.X_INA849_OUTAMP.X_U1.D1 X_U1.X_INA849_OUTAMP.X_U1.7 0
+ X_U1.X_INA849_OUTAMP.X_U1.DVN
X_U1.X_INA849_OUTAMP.X_U1.D2 X_U1.X_INA849_OUTAMP.X_U1.8 0
+ X_U1.X_INA849_OUTAMP.X_U1.DVN
X_U1.X_INA849_OUTAMP.X_U1.E1 X_U1.X_INA849_OUTAMP.X_U1.3
+ X_U1.X_INA849_OUTAMP.X_U1.6 X_U1.X_INA849_OUTAMP.X_U1.7
+ X_U1.X_INA849_OUTAMP.X_U1.8 {GLF}
X_U1.X_INA849_OUTAMP.X_U1.R1 X_U1.X_INA849_OUTAMP.X_U1.3 0 1E9
X_U1.X_INA849_OUTAMP.X_U1.R2 X_U1.X_INA849_OUTAMP.X_U1.3 0 1E9
X_U1.X_INA849_OUTAMP.X_U1.R3 X_U1.X_INA849_OUTAMP.X_U1.3
+ X_U1.X_INA849_OUTAMP.X_U1.6 1E9
X_U1.X_INA849_OUTAMP.X_U1.E2 X_U1.X_INA849_OUTAMP.X_U1.6
+ X_U1.X_INA849_OUTAMP.X_U1.4 X_U1.X_INA849_OUTAMP.X_U1.5 0 10
X_U1.X_INA849_OUTAMP.X_U1.R4 X_U1.X_INA849_OUTAMP.X_U1.5 0 {RNV}
X_U1.X_INA849_OUTAMP.X_U1.R5 X_U1.X_INA849_OUTAMP.X_U1.5 0 {RNV}
X_U1.X_INA849_OUTAMP.X_U1.R6 X_U1.X_INA849_OUTAMP.X_U1.3
+ X_U1.X_INA849_OUTAMP.X_U1.4 1E9
X_U1.X_INA849_OUTAMP.X_U1.R7 X_U1.X_INA849_OUTAMP.X_U1.4 0 1E9
X_U1.X_INA849_OUTAMP.X_U1.E3 X_U1.X_INA849_OUTAMP.N953165
+ X_U1.X_INA849_OUTAMP.N2052331 X_U1.X_INA849_OUTAMP.X_U1.3
+ X_U1.X_INA849_OUTAMP.X_U1.4 1


**** EXPANSION OF SUBCIRCUIT X_U1.X_INA849_OUTAMP.X_U10 ****
X_U1.X_INA849_OUTAMP.X_U10.G1 X_U1.MID X_U1.X_INA849_OUTAMP.N1401213
+ VALUE {LIMIT(GAIN*V(0#,1#),V(5#,1#), V(4#,1#))}


**** EXPANSION OF SUBCIRCUIT X_U1.X_INA849_OUTAMP.X_U11 ****
X_U1.X_INA849_OUTAMP.X_U11.G1 X_U1.X_INA849_OUTAMP.N1661302
+ X_U1.VCC_B TABLE {(V(0#,1#))} 0 9.41E-5 4 1.66E-4 10 2.42E-4 14
+ 3.41E-4 18 4.78E-4 20 5.60E-4 22 6.72E-4 23 7.69E-4 24 9.16E-4 25
+ 1.11E-3 34 1.45E-2


**** EXPANSION OF SUBCIRCUIT X_U1.X_INA849_OUTAMP.X_U12 ****
X_U1.X_INA849_OUTAMP.X_U12.G1 X_U1.VEE_B
+ X_U1.X_INA849_OUTAMP.N1661612 TABLE {(V(0#,1#))} 0 4.91E-5 4
+ 1.09E-4 10 1.66E-4 14 2.27E-4 18 3.20E-4 20 4.56E-4 21 6.63E-4 22
+ 9.86E-4 23 1.42E-3 34 1.45E-2


**** EXPANSION OF SUBCIRCUIT X_U1.X_INA849_OUTAMP.X_U13 ****
X_U1.X_INA849_OUTAMP.X_U13.GVO+ X_U1.MID
+ X_U1.X_INA849_OUTAMP.N1661466 VALUE {IF(V(2#,3#)>V(0#,3#),((V(2#,3#)-V(
+ 0#,3#))*G),0)}
X_U1.X_INA849_OUTAMP.X_U13.GVO- X_U1.MID
+ X_U1.X_INA849_OUTAMP.N1661666 VALUE {IF(V(2#,3#)<V(1#,3#),((V(1#,3#)-V(
+ 2#,3#))*G),0)}


**** EXPANSION OF SUBCIRCUIT X_U1.X_INA849_OUTAMP.X_U14 ****
X_U1.X_INA849_OUTAMP.X_U14.G1 X_U1.X_INA849_OUTAMP.CLAW_CLAMP_OP
+ X_U1.MID VALUE {LIMIT(GAIN*V(0#,1#),INEG,IPOS)}


**** EXPANSION OF SUBCIRCUIT X_U1.X_INA849_OUTAMP.X_U15 ****
X_U1.X_INA849_OUTAMP.X_U15.GVO+ X_U1.MID
+ X_U1.X_INA849_OUTAMP.N1663805 VALUE {IF(V(2#,3#)>V(0#,3#),((V(2#,3#)-V(
+ 0#,3#))*G),0)}
X_U1.X_INA849_OUTAMP.X_U15.GVO- X_U1.MID
+ X_U1.X_INA849_OUTAMP.N1664077 VALUE {IF(V(2#,3#)<V(1#,3#),((V(1#,3#)-V(
+ 2#,3#))*G),0)}


**** EXPANSION OF SUBCIRCUIT X_U1.X_INA849_OUTAMP.X_U16 ****
X_U1.X_INA849_OUTAMP.X_U16.G1 X_U1.X_INA849_OUTAMP.CL_CLAMP_OP
+ X_U1.MID VALUE {LIMIT(GAIN*V(0#,1#),INEG,IPOS)}


**** EXPANSION OF SUBCIRCUIT X_U1.X_INA849_OUTAMP.X_U17 ****
X_U1.X_INA849_OUTAMP.X_U17.GVO+ X_U1.MID
+ X_U1.X_INA849_OUTAMP.N1663951 VALUE {IF(V(2#,3#)>V(0#,3#),((V(2#,3#)-V(
+ 0#,3#))*G),0)}
X_U1.X_INA849_OUTAMP.X_U17.GVO- X_U1.MID
+ X_U1.X_INA849_OUTAMP.N1664165 VALUE {IF(V(2#,3#)<V(1#,3#),((V(1#,3#)-V(
+ 2#,3#))*G),0)}


**** EXPANSION OF SUBCIRCUIT X_U1.X_INA849_OUTAMP.X_U18 ****
X_U1.X_INA849_OUTAMP.X_U18.G1 X_U1.X_INA849_OUTAMP.CLAMP X_U1.MID
+ VALUE {LIMIT(GAIN*V(0#,1#),INEG,IPOS)}


**** EXPANSION OF SUBCIRCUIT X_U1.X_INA849_OUTAMP.X_U19 ****
X_U1.X_INA849_OUTAMP.X_U19.E1 X_U1.X_INA849_OUTAMP.N2052331
+ X_U1.X_INA849_OUTAMP.N1394706 VALUE {DC+POL*DRIFT*(TEMP-27)}


**** EXPANSION OF SUBCIRCUIT X_U1.X_INA849_OUTAMP.X_U20 ****
.MODEL X_U1.X_INA849_OUTAMP.X_U20.ESD_SW VSWITCH RON 50 ROFF 1E12 VON
+ 500E-3 VOFF 100E-3
X_U1.X_INA849_OUTAMP.X_U20.S1 VCC OUT OUT VCC
+ X_U1.X_INA849_OUTAMP.X_U20.ESD_SW
X_U1.X_INA849_OUTAMP.X_U20.S2 OUT VEE VEE OUT
+ X_U1.X_INA849_OUTAMP.X_U20.ESD_SW


**** EXPANSION OF SUBCIRCUIT X_U1.X_INA849_OUTAMP.X_U23 ****
X_U1.X_INA849_OUTAMP.X_U23.G1 X_U1.MID X_U1.X_INA849_OUTAMP.N1940296
+ VALUE {LIMIT(GAIN*V(0#,1#),INEG,IPOS)}


**** EXPANSION OF SUBCIRCUIT X_U1.X_INA849_OUTAMP.X_U4 ****
X_U1.X_INA849_OUTAMP.X_U4.G1 X_U1.MID X_U1.X_INA849_OUTAMP.N261787
+ VALUE {LIMIT(GAIN*V(0#,1#),INEG,IPOS)}


**** EXPANSION OF SUBCIRCUIT X_U1.X_INA849_OUTAMP.X_U5 ****
X_U1.X_INA849_OUTAMP.X_U5.G1 X_U1.MID X_U1.X_INA849_OUTAMP.CLAMP
+ VALUE {LIMIT(GAIN*V(0#,1#),INEG,IPOS)}


**** EXPANSION OF SUBCIRCUIT X_U1.X_INA849_OUTAMP.X_U_OUTAMP_IQN ****
X_U1.X_INA849_OUTAMP.X_U_OUTAMP_IQN.G1 VEE X_U1.MID VALUE {IF( (V(0#,1#)<=0),
+ 0,GAIN*V(0#,1#) )}


**** EXPANSION OF SUBCIRCUIT X_U1.X_INA849_OUTAMP.X_U_OUTAMP_IQP ****
X_U1.X_INA849_OUTAMP.X_U_OUTAMP_IQP.G1 X_U1.MID VCC VALUE {IF( (V(0#,1#)<=0),
+ 0,GAIN*V(0#,1#) )}

**** 10/06/21 21:52:16 ******* PSpice 17.4.0 (Nov 2018) ******* ID# 0 ********

 ** Profile: "INA849_Test_Circuit-TRANS"  [ H:\OneDrive\Project\Amplifier\simulation\ina849\ina849_test_circuit-pspicefiles\ina849_te


 ****     Diode MODEL PARAMETERS


******************************************************************************




               X_U1.X_U1.DVN   X_U1.X_U16.DVN  X_U1.X_U7.DVNF  X_U1.X_U8.DVNF  
          IS  100.000000E-18  100.000000E-18  100.000000E-18  100.000000E-18 
          KF    3.162278E-12    3.162278E-12    3.162278E-12    3.162278E-12 


               X_U1.X_INA849_OUTAMP.X_U1.DVN 
          IS  100.000000E-18 
          KF    3.872984E-12 


**** 10/06/21 21:52:16 ******* PSpice 17.4.0 (Nov 2018) ******* ID# 0 ********

 ** Profile: "INA849_Test_Circuit-TRANS"  [ H:\OneDrive\Project\Amplifier\simulation\ina849\ina849_test_circuit-pspicefiles\ina849_te


 ****     Resistor MODEL PARAMETERS


******************************************************************************




               R_NOISELESS     
  T_Measured   27            
   T_Current -273.15         
           R    1            


**** 10/06/21 21:52:16 ******* PSpice 17.4.0 (Nov 2018) ******* ID# 0 ********

 ** Profile: "INA849_Test_Circuit-TRANS"  [ H:\OneDrive\Project\Amplifier\simulation\ina849\ina849_test_circuit-pspicefiles\ina849_te


 ****     Voltage Controlled Switch MODEL PARAMETERS


******************************************************************************




               X_U1.X_U12.ESD_SW 
         RON   50            
        ROFF    1.000000E+12 
         VON     .5          
        VOFF     .1          


               X_U1.X_U13.ESD_SW 
         RON   50            
        ROFF    1.000000E+12 
         VON     .5          
        VOFF     .1          


               X_U1.X_U14.ESD_SW 
         RON   50            
        ROFF    1.000000E+12 
         VON     .5          
        VOFF     .1          


               X_U1.X_U15.ESD_SW 
         RON   50            
        ROFF    1.000000E+12 
         VON     .5          
        VOFF     .1          


               X_U1.X_U3.ESD_SW 
         RON   50            
        ROFF    1.000000E+12 
         VON     .5          
        VOFF     .1          


               X_U1.X_U4.ESD_SW 
         RON   50            
        ROFF    1.000000E+12 
         VON     .5          
        VOFF     .1          


               X_U1.X_INA849_OUTAMP.X_U20.ESD_SW 
         RON   50            
        ROFF    1.000000E+12 
         VON     .5          
        VOFF     .1          


**** 10/06/21 21:52:16 ******* PSpice 17.4.0 (Nov 2018) ******* ID# 0 ********

 ** Profile: "INA849_Test_Circuit-TRANS"  [ H:\OneDrive\Project\Amplifier\simulation\ina849\ina849_test_circuit-pspicefiles\ina849_te


 ****     INITIAL TRANSIENT SOLUTION       TEMPERATURE =   27.000 DEG C


******************************************************************************



 NODE   VOLTAGE     NODE   VOLTAGE     NODE   VOLTAGE     NODE   VOLTAGE


(  IN+) 42.50E-06  (  IN-) 10.00E-06  (  OUT)     .0423  (  REF)    0.0000      

(  VCC)   12.0000  (  VEE)  -12.0000  (IN_NODE) 50.00E-06                       

(N1641887)    -.0010                  (N1641977)    -.0011                      

(N1642181) 35.00E-06                  (X_U1.INN) 10.00E-06                      

(X_U1.INP) 52.50E-06                  (X_U1.MID) 1.932E-09                      

(X_U1.ESDN) 10.00E-06                 (X_U1.ESDP) 42.50E-06                     

(X_U1.NODE1)    -.0222                (X_U1.NODE2)     .0201                    

(X_U1.VCC_B)   12.0000                (X_U1.VEE_B)  -12.0000                    

(X_U1.X_U1.3)    0.0000               (X_U1.X_U1.4)    0.0000                   

(X_U1.X_U1.5)    0.0000               (X_U1.X_U1.6)    0.0000                   

(X_U1.X_U1.7)     .8338               (X_U1.X_U1.8)     .8338                   

(X_U1.X_U7.3)    0.0000               (X_U1.X_U7.4)    0.0000                   

(X_U1.X_U7.5)    0.0000               (X_U1.X_U7.6)    0.0000                   

(X_U1.X_U7.7)     .8338               (X_U1.X_U7.8)     .8338                   

(X_U1.X_U8.3)    0.0000               (X_U1.X_U8.4)    0.0000                   

(X_U1.X_U8.5)    0.0000               (X_U1.X_U8.6)    0.0000                   

(X_U1.X_U8.7)     .8338               (X_U1.X_U8.8)     .8338                   

(X_U1.N969449)   11.0000              (X_U1.N969473)   11.0000                  

(X_U1.N969492)   11.0000              (X_U1.X_U16.3)    0.0000                  

(X_U1.X_U16.4)    0.0000              (X_U1.X_U16.5)    0.0000                  

(X_U1.X_U16.6)    0.0000              (X_U1.X_U16.7)     .8338                  

(X_U1.X_U16.8)     .8338              (X_U1.N1383384) 10.00E-06                 

(X_U1.N1383401) 42.50E-06             (X_U1.N1384032) 52.50E-06                 

(X_U1.N1384907) 52.50E-06             (X_U1.N1385067)    9.4999                 

(X_U1.N1385271)   -9.4999             (X_U1.N1385582) 52.50E-06                 

(X_U1.N1386246)    9.4999             (X_U1.N1386314) 10.00E-06                 

(X_U1.N1386364) 10.00E-06             (X_U1.N1386438)   -9.4999                 

(X_U1.N1602365) 1.932E-09             (X_U1.N1602505)   12.0000                 

(X_U1.N1602545)  -12.0000             (X_U1.N1604535)     .0101                 

(X_U1.N1604573)     .0100             (X_U1.X_INA849_OUTAMP.VCLP)     .3220     

(X_U1.X_INA849_OUTAMP.CLAMP)     .3222                                          

(X_U1.X_INA849_OUTAMP.PSRR+) 12.00E-06                                          

(X_U1.X_INA849_OUTAMP.PSRR-)-12.00E-06                                          

(X_U1.X_INA849_OUTAMP.VIMON)     .0487                                          

(X_U1.X_INA849_INAMP0.CLAMP1)    -.0258                                         

(X_U1.X_INA849_INAMP0.VIMON1)    -.0135                                         

(X_U1.X_INA849_INAMP1.CLAMP1)     .0231                                         

(X_U1.X_INA849_INAMP1.VIMON1)     .0090                                         

(X_U1.X_INA849_OUTAMP.VOUT_S)     .0423                                         

(X_U1.X_INA849_OUTAMP.VSENSE)     .3222                                         

(X_U1.X_INA849_OUTAMP.X_U1.3)    0.0000                                         

(X_U1.X_INA849_OUTAMP.X_U1.4)    0.0000                                         

(X_U1.X_INA849_OUTAMP.X_U1.5)    0.0000                                         

(X_U1.X_INA849_OUTAMP.X_U1.6)    0.0000                                         

(X_U1.X_INA849_OUTAMP.X_U1.7)     .8338                                         

(X_U1.X_INA849_OUTAMP.X_U1.8)     .8338                                         

(X_U1.X_INA849_INAMP0.N256245)    -.3217                                        

(X_U1.X_INA849_INAMP0.N256255)    -.0918                                        

(X_U1.X_INA849_INAMP0.N256265)    -.3217                                        

(X_U1.X_INA849_INAMP0.N256273)    -.3147                                        

(X_U1.X_INA849_INAMP0.N256555)    -.3217                                        

(X_U1.X_INA849_INAMP0.N256573)    -.3217                                        

(X_U1.X_INA849_INAMP0.N256623)    -.3216                                        

(X_U1.X_INA849_INAMP0.N256643)    -.3216                                        

(X_U1.X_INA849_INAMP0.N256659)    -.3216                                        

(X_U1.X_INA849_INAMP0.N256703)    -.3215                                        

(X_U1.X_INA849_INAMP0.N256819)    -.0222                                        

(X_U1.X_INA849_INAMP0.N257223)    -.3217                                        

(X_U1.X_INA849_INAMP0.N257277)    -.3216                                        

(X_U1.X_INA849_INAMP0.N261786)-2.914E-06                                        

(X_U1.X_INA849_INAMP0.N928127)   11.0000                                        

(X_U1.X_INA849_INAMP0.N928131)   11.0000                                        

(X_U1.X_INA849_INAMP0.N957915)    -.3216                                        

(X_U1.X_INA849_INAMP0.N957967)    -.3216                                        

(X_U1.X_INA849_INAMP0.N970369)    -.0135                                        

(X_U1.X_INA849_INAMP0.VSENSE1)    -.0258                                        

(X_U1.X_INA849_INAMP1.N256245)     .2730                                        

(X_U1.X_INA849_INAMP1.N256255)     .0779                                        

(X_U1.X_INA849_INAMP1.N256265)     .2730                                        

(X_U1.X_INA849_INAMP1.N256273)     .2670                                        

(X_U1.X_INA849_INAMP1.N256555)     .2730                                        

(X_U1.X_INA849_INAMP1.N256573)     .2730                                        

(X_U1.X_INA849_INAMP1.N256623)     .2729                                        

(X_U1.X_INA849_INAMP1.N256643)     .2729                                        

(X_U1.X_INA849_INAMP1.N256659)     .2729                                        

(X_U1.X_INA849_INAMP1.N256703)     .2729                                        

(X_U1.X_INA849_INAMP1.N256819)     .0201                                        

(X_U1.X_INA849_INAMP1.N257223)     .2730                                        

(X_U1.X_INA849_INAMP1.N257277)     .2729                                        

(X_U1.X_INA849_INAMP1.N261786) 2.618E-06                                        

(X_U1.X_INA849_INAMP1.N928127)   11.0000                                        

[...]

(X_U1.X_INA849_OUTAMP.N1661462) 1.932E-09                                       

(X_U1.X_INA849_OUTAMP.N1661466) 1.932E-09                                       

(X_U1.X_INA849_OUTAMP.N1661612)  -11.9510                                       

(X_U1.X_INA849_OUTAMP.N1661626)  -11.9510                                       

(X_U1.X_INA849_OUTAMP.N1661666) 1.932E-09                                       

(X_U1.X_INA849_OUTAMP.N1661680) 1.932E-09                                       

(X_U1.X_INA849_OUTAMP.N1663647)   34.0000                                       

(X_U1.X_INA849_OUTAMP.N1663665)  220.0000                                       

(X_U1.X_INA849_OUTAMP.N1663763) 1.932E-09                                       

(X_U1.X_INA849_OUTAMP.N1663805) 1.932E-09                                       

(X_U1.X_INA849_OUTAMP.N1663947) 1.932E-09                                       

(X_U1.X_INA849_OUTAMP.N1663951) 1.932E-09                                       

(X_U1.X_INA849_OUTAMP.N1664077) 1.932E-09                                       

(X_U1.X_INA849_OUTAMP.N1664091) 1.932E-09                                       

(X_U1.X_INA849_OUTAMP.N1664165) 1.932E-09                                       

(X_U1.X_INA849_OUTAMP.N1664179) 1.932E-09                                       

(X_U1.X_INA849_OUTAMP.N1664201)  -34.0000                                       

(X_U1.X_INA849_OUTAMP.N1664265) -220.0000                                       

(X_U1.X_INA849_OUTAMP.N1696516)     .3220                                       

(X_U1.X_INA849_OUTAMP.N1939474)   24.8950                                       

(X_U1.X_INA849_OUTAMP.N1939484)     .0189                                       

(X_U1.X_INA849_OUTAMP.N1939494)   24.8980                                       

(X_U1.X_INA849_OUTAMP.N1939504)     .2174                                       

(X_U1.X_INA849_OUTAMP.N1939514)   24.8870                                       

(X_U1.X_INA849_OUTAMP.N1939524)   15.2440                                       

(X_U1.X_INA849_OUTAMP.N1939534)   24.8460                                       

(X_U1.X_INA849_OUTAMP.N1939542)    1.2423                                       

(X_U1.X_INA849_OUTAMP.N1939552)   24.8430                                       

(X_U1.X_INA849_OUTAMP.N1939562)    1.2421                                       

(X_U1.X_INA849_OUTAMP.N1939572)   24.8400                                       

(X_U1.X_INA849_OUTAMP.N1939580)    1.2420                                       

(X_U1.X_INA849_OUTAMP.N1939722)   24.8880                                       

(X_U1.X_INA849_OUTAMP.N1939730)   24.8880                                       

(X_U1.X_INA849_OUTAMP.N1939746)   24.8880                                       

(X_U1.X_INA849_OUTAMP.N1939754)   24.8880                                       

(X_U1.X_INA849_OUTAMP.N1939792)   24.8480                                       

(X_U1.X_INA849_OUTAMP.N1939800)   24.8480                                       

(X_U1.X_INA849_OUTAMP.N1939816)   24.8480                                       

(X_U1.X_INA849_OUTAMP.N1939824)   24.8480                                       

(X_U1.X_INA849_OUTAMP.N1940296)   24.8390                                       

(X_U1.X_INA849_OUTAMP.N1940758)   24.8880                                       

(X_U1.X_INA849_OUTAMP.N1940790)   24.8880                                       

(X_U1.X_INA849_OUTAMP.N1940844)   24.8480                                       

(X_U1.X_INA849_OUTAMP.N1940876)   24.8480                                       

(X_U1.X_INA849_OUTAMP.N2052331)     .0100                                       

(X_U1.X_INA849_OUTAMP.OUT_NODE)     .0423                                       

(X_U1.X_INA849_OUTAMP.CL_CLAMP_OP)     .3220                                    

(X_U1.X_INA849_OUTAMP.CLAW_CLAMP_OP)     .3220           




    VOLTAGE SOURCE CURRENTS
    NAME         CURRENT

    V_Vref       2.008E-06
    V_V1         0.000E+00
    V_Vee       -6.187E-03
    V_Vcc       -6.142E-03
    V_Vref1     -1.500E-11
    X_U1.V_VB   -1.297E-15
    X_U1.V_VCM_MAX  -9.500E-12
    X_U1.V_VCM_MAX1  -9.500E-12
    X_U1.V_VCM_MIN   9.500E-12
    X_U1.V_VCM_MIN1   9.500E-12
    X_U1.X_INA849_OUTAMP.V_VCM_MAX2  -1.000E-11
    X_U1.X_INA849_OUTAMP.V_VCM_MIN2   1.000E-11
    X_U1.X_INA849_OUTAMP.V_V_GRN   2.200E-07
    X_U1.X_INA849_OUTAMP.V_V_GRP  -2.200E-07
    X_U1.X_INA849_OUTAMP.V_V_ISCN   3.400E-11
    X_U1.X_INA849_OUTAMP.V_V_ISCP  -3.400E-11
    X_U1.X_INA849_INAMP0.X_H_IMON11.VH_H_IMON11  -1.348E-05
    X_U1.X_INA849_INAMP1.X_H_IMON11.VH_H_IMON11   9.046E-06
    X_U1.X_INA849_OUTAMP.X_H_IMON.VH_H_IMON   4.875E-05

    TOTAL POWER DISSIPATION   1.48E-01  WATTS


**** 10/06/21 21:52:16 ******* PSpice 17.4.0 (Nov 2018) ******* ID# 0 ********

 ** Profile: "INA849_Test_Circuit-TRANS"  [ H:\OneDrive\Project\Amplifier\simulation\ina849\ina849_test_circuit-pspicefiles\ina849_te


 ****     OPERATING POINT INFORMATION      TEMPERATURE =   27.000 DEG C


******************************************************************************






**** VOLTAGE-CONTROLLED CURRENT SOURCES


NAME         X_U1.G_GM1  X_U1.G_GM2  X_U1.G_G_VCC_BUFFER   
I-SOURCE     2.400E-05   2.400E-05  -1.200E+01            

NAME         X_U1.G_G_VEE_BUFFER     X_U1.X_INA849_INAMP0.G_G12        
I-SOURCE     1.200E+01               2.580E-05                        

NAME         X_U1.X_INA849_INAMP0.G_G15        
I-SOURCE     3.218E-01                        

NAME         X_U1.X_INA849_INAMP0.G_G16        
I-SOURCE     3.217E-01                        

NAME         X_U1.X_INA849_INAMP0.G_G17        
I-SOURCE     3.217E-01                        

NAME         X_U1.X_INA849_INAMP0.G_G26        
I-SOURCE     3.216E-01                        

NAME         X_U1.X_INA849_INAMP0.G_G27        
I-SOURCE     3.216E-01                        

NAME         X_U1.X_INA849_INAMP0.G_G55        
I-SOURCE     3.216E-01                        

NAME         X_U1.X_INA849_INAMP1.G_G12        
I-SOURCE    -2.315E-05                        

NAME         X_U1.X_INA849_INAMP1.G_G15        
I-SOURCE    -2.731E-01                        

NAME         X_U1.X_INA849_INAMP1.G_G16        
I-SOURCE    -2.730E-01                        

NAME         X_U1.X_INA849_INAMP1.G_G17        
I-SOURCE    -2.730E-01                        

NAME         X_U1.X_INA849_INAMP1.G_G26        
I-SOURCE    -2.729E-01                        

NAME         X_U1.X_INA849_INAMP1.G_G27        
I-SOURCE    -2.729E-01                        

NAME         X_U1.X_INA849_INAMP1.G_G55        
I-SOURCE    -2.729E-01                        

NAME         X_U1.X_INA849_OUTAMP.G_G18        
I-SOURCE    -2.489E+01                        

NAME         X_U1.X_INA849_OUTAMP.G_G53        
I-SOURCE    -1.191E-02                        

NAME         X_U1.X_INA849_OUTAMP.G_G57        
I-SOURCE    -2.400E-08                        

NAME         X_U1.X_INA849_OUTAMP.G_G58        
I-SOURCE    -3.220E-04                        

NAME         X_U1.X_INA849_OUTAMP.G_G59        
I-SOURCE    -3.220E-04                        

NAME         X_U1.X_INA849_OUTAMP.G_G60        
I-SOURCE    -2.056E+00                        

NAME         X_U1.X_INA849_OUTAMP.G_G61        
I-SOURCE    -2.056E+00                        

NAME         X_U1.X_INA849_OUTAMP.G_G64        
I-SOURCE    -3.222E-04                        

NAME         X_U1.X_INA849_OUTAMP.G_G65        
I-SOURCE    -3.222E-07                        

NAME         X_U1.X_INA849_OUTAMP.G_G66        
I-SOURCE     1.195E-02                        

NAME         X_U1.X_INA849_OUTAMP.G_G69        
I-SOURCE    -2.490E+01                        

NAME         X_U1.X_INA849_OUTAMP.G_G70        
I-SOURCE    -2.490E+01                        

NAME         X_U1.X_INA849_OUTAMP.G_G71        
I-SOURCE    -2.485E+01                        

NAME         X_U1.X_INA849_OUTAMP.G_G72        
I-SOURCE    -2.485E+01                        

NAME         X_U1.X_INA849_OUTAMP.G_G73        
I-SOURCE    -2.484E+01                        

NAME         X_U1.X_INA849_OUTAMP.G_G74        
I-SOURCE    -2.489E+01                        

NAME         X_U1.X_INA849_OUTAMP.G_G75        
I-SOURCE    -2.489E+01                        

NAME         X_U1.X_INA849_OUTAMP.G_G76        
I-SOURCE    -2.485E+01                        

NAME         X_U1.X_INA849_OUTAMP.G_G77        
I-SOURCE    -2.485E+01                        

NAME         X_U1.X_INA849_OUTAMP.G_G_PSRNEG   
I-SOURCE     1.264E-01                        

NAME         X_U1.X_INA849_OUTAMP.G_G_PSRNEG1  
I-SOURCE     1.200E-05                        

NAME         X_U1.X_INA849_OUTAMP.G_G_PSRNEG2  
I-SOURCE     1.200E-05                        

NAME         X_U1.X_INA849_OUTAMP.G_G_PSRNEG3  
I-SOURCE     1.201E-05                        

NAME         X_U1.X_INA849_OUTAMP.G_G_PSRNEG4  
I-SOURCE     1.201E-05                        

NAME         X_U1.X_INA849_OUTAMP.G_G_PSRNEG5  
I-SOURCE     1.201E-05                        

NAME         X_U1.X_INA849_OUTAMP.G_G_PSRPOS   
I-SOURCE    -2.182E+01                        

NAME         X_U1.X_INA849_OUTAMP.G_G_PSRPOS1  
I-SOURCE    -1.200E-05                        

NAME         X_U1.X_INA849_OUTAMP.G_G_PSRPOS2    X_U1.X_U10.G1         
I-SOURCE    -1.200E-05                           5.250E-05            

NAME         X_U1.X_U11.G1           X_U1.X_U7.G1          
I-SOURCE     9.998E-06               0.000E+00            

NAME         X_U1.X_U8.G1            X_U1.X_INA849_INAMP0.X_U2.G1      
I-SOURCE     0.000E+00              -2.916E-12                        

NAME         X_U1.X_INA849_INAMP0.X_U3.G1      
I-SOURCE    -2.580E-08                        

NAME         X_U1.X_INA849_INAMP0.X_U_INAMP_IQN.G1         
I-SOURCE     1.348E-05                                    

NAME         X_U1.X_INA849_INAMP0.X_U_INAMP_IQP.G1         
I-SOURCE     0.000E+00                                    

NAME         X_U1.X_INA849_INAMP1.X_U2.G1      
I-SOURCE     2.616E-12                        

NAME         X_U1.X_INA849_INAMP1.X_U3.G1      
I-SOURCE     2.315E-08                        

NAME         X_U1.X_INA849_INAMP1.X_U_INAMP_IQN.G1         
I-SOURCE     0.000E+00                                    

NAME         X_U1.X_INA849_INAMP1.X_U_INAMP_IQP.G1         
I-SOURCE     9.046E-06                                    

NAME         X_U1.X_INA849_OUTAMP.X_U10.G1     
I-SOURCE     1.006E-02                        

NAME         X_U1.X_INA849_OUTAMP.X_U11.G1     
I-SOURCE     9.498E-05                        

NAME         X_U1.X_INA849_OUTAMP.X_U12.G1     
I-SOURCE     4.910E-05                        

NAME         X_U1.X_INA849_OUTAMP.X_U13.GVO+   
I-SOURCE     0.000E+00                        

NAME         X_U1.X_INA849_OUTAMP.X_U13.GVO-   
I-SOURCE     0.000E+00                        

NAME         X_U1.X_INA849_OUTAMP.X_U14.G1     
I-SOURCE     0.000E+00                        

NAME         X_U1.X_INA849_OUTAMP.X_U15.GVO+   
I-SOURCE     0.000E+00                        

NAME         X_U1.X_INA849_OUTAMP.X_U15.GVO-   
I-SOURCE     0.000E+00                        

NAME         X_U1.X_INA849_OUTAMP.X_U16.G1     
I-SOURCE     0.000E+00                        

NAME         X_U1.X_INA849_OUTAMP.X_U17.GVO+   
I-SOURCE     0.000E+00                        

NAME         X_U1.X_INA849_OUTAMP.X_U17.GVO-   
I-SOURCE     0.000E+00                        

NAME         X_U1.X_INA849_OUTAMP.X_U18.G1     
I-SOURCE     0.000E+00                        

NAME         X_U1.X_INA849_OUTAMP.X_U23.G1     
I-SOURCE     2.484E+01                        

NAME         X_U1.X_INA849_OUTAMP.X_U4.G1      
I-SOURCE     2.119E-14                        

NAME         X_U1.X_INA849_OUTAMP.X_U5.G1      
I-SOURCE     3.222E-07                        

NAME         X_U1.X_INA849_OUTAMP.X_U_OUTAMP_IQN.G1        
I-SOURCE     0.000E+00                                    

NAME         X_U1.X_INA849_OUTAMP.X_U_OUTAMP_IQP.G1        
I-SOURCE     4.875E-05                                    


**** VOLTAGE-CONTROLLED VOLTAGE SOURCES


NAME         E_E10       E_E9        X_U1.E_E_MID          
V-SOURCE     2.500E-05   7.500E-06   1.932E-09            
I-SOURCE     5.000E-12  -1.000E-11  -8.862E-05            

NAME         X_U1.X_INA849_OUTAMP.E_E2         
V-SOURCE     3.220E-01                        
I-SOURCE     0.000E+00                        

NAME         X_U1.X_INA849_OUTAMP.E_E4           X_U1.X_U1.E1          
V-SOURCE     4.230E-02                           0.000E+00            
I-SOURCE    -4.230E-14                           0.000E+00            

NAME         X_U1.X_U1.E2            X_U1.X_U1.E3          
V-SOURCE     0.000E+00               0.000E+00            
I-SOURCE     0.000E+00               1.000E-11            

NAME         X_U1.X_U16.E1           X_U1.X_U16.E2         
V-SOURCE     0.000E+00               0.000E+00            
I-SOURCE     0.000E+00               0.000E+00            

NAME         X_U1.X_U16.E3           X_U1.X_U7.E1          
V-SOURCE     0.000E+00               0.000E+00            
I-SOURCE     5.000E-12               0.000E+00            

NAME         X_U1.X_U7.E2            X_U1.X_U8.E1          
V-SOURCE     0.000E+00               0.000E+00            
I-SOURCE     0.000E+00               0.000E+00            

NAME         X_U1.X_U8.E2            X_U1.X_U9.E1          
V-SOURCE     0.000E+00               1.000E-05            
I-SOURCE     0.000E+00               3.271E-20            

NAME         X_U1.X_INA849_OUTAMP.X_U1.E1      
V-SOURCE     0.000E+00                        
I-SOURCE     0.000E+00                        

NAME         X_U1.X_INA849_OUTAMP.X_U1.E2      
V-SOURCE     0.000E+00                        
I-SOURCE     0.000E+00                        

NAME         X_U1.X_INA849_OUTAMP.X_U1.E3      
V-SOURCE     0.000E+00                        
I-SOURCE    -6.092E-22                        

NAME         X_U1.X_INA849_OUTAMP.X_U19.E1     
V-SOURCE     5.000E-06                        
I-SOURCE    -6.092E-22                        


**** CURRENT-CONTROLLED VOLTAGE SOURCES


NAME         X_U1.X_INA849_INAMP0.X_H_IMON11.H_H_IMON11    
V-SOURCE    -1.348E-02                                    
I-SOURCE     1.348E-14                                    

NAME         X_U1.X_INA849_INAMP1.X_H_IMON11.H_H_IMON11    
V-SOURCE     9.046E-03                                    
I-SOURCE    -9.046E-15                                    

NAME         X_U1.X_INA849_OUTAMP.X_H_IMON.H_H_IMON        
V-SOURCE     4.875E-02                                    
I-SOURCE    -4.875E-14                                    


**** DIODES


NAME         X_U1.X_U1.D1            X_U1.X_U1.D2          
MODEL        X_U1.X_U1.DVN           X_U1.X_U1.DVN         
ID           1.00E-02                1.00E-02             
VD           8.34E-01                8.34E-01             
REQ          2.59E+00                2.59E+00             
CAP          0.00E+00                0.00E+00             

NAME         X_U1.X_U16.D1           X_U1.X_U16.D2         
MODEL        X_U1.X_U16.DVN          X_U1.X_U16.DVN        
ID           1.00E-02                1.00E-02             
VD           8.34E-01                8.34E-01             
REQ          2.59E+00                2.59E+00             
CAP          0.00E+00                0.00E+00             

NAME         X_U1.X_U7.D1            X_U1.X_U7.D2          
MODEL        X_U1.X_U7.DVNF          X_U1.X_U7.DVNF        
ID           1.00E-02                1.00E-02             
VD           8.34E-01                8.34E-01             
REQ          2.59E+00                2.59E+00             
CAP          0.00E+00                0.00E+00             

NAME         X_U1.X_U8.D1            X_U1.X_U8.D2          
MODEL        X_U1.X_U8.DVNF          X_U1.X_U8.DVNF        
ID           1.00E-02                1.00E-02             
VD           8.34E-01                8.34E-01             
REQ          2.59E+00                2.59E+00             
CAP          0.00E+00                0.00E+00             

NAME         X_U1.X_INA849_OUTAMP.X_U1.D1      
MODEL        X_U1.X_INA849_OUTAMP.X_U1.DVN     
ID           1.00E-02                         
VD           8.34E-01                         
REQ          2.59E+00                         
CAP          0.00E+00                         

NAME         X_U1.X_INA849_OUTAMP.X_U1.D2      
MODEL        X_U1.X_INA849_OUTAMP.X_U1.DVN     
ID           1.00E-02                         
VD           8.34E-01                         
REQ          2.59E+00                         
CAP          0.00E+00                         


**** VOLTAGE CONTROLLED SWITCHES


NAME         X_U1.X_U12.S1           X_U1.X_U12.S2         
MODEL        X_U1.X_U12.ESD_SW       X_U1.X_U12.ESD_SW     
I LOAD       1.20E-11                1.20E-11             
V LOAD       1.20E+01                1.20E+01             
R LOAD       1.00E+12                1.00E+12             
V CTRL      -1.20E+01               -1.20E+01             

NAME         X_U1.X_U13.S1           X_U1.X_U13.S2         
MODEL        X_U1.X_U13.ESD_SW       X_U1.X_U13.ESD_SW     
I LOAD       1.20E-11                1.20E-11             
V LOAD       1.20E+01                1.20E+01             
R LOAD       1.00E+12                1.00E+12             
V CTRL      -1.20E+01               -1.20E+01             

NAME         X_U1.X_U14.S1           X_U1.X_U14.S2         
MODEL        X_U1.X_U14.ESD_SW       X_U1.X_U14.ESD_SW     
I LOAD       1.20E-11                1.20E-11             
V LOAD       1.20E+01                1.20E+01             
R LOAD       1.00E+12                1.00E+12             
V CTRL      -1.20E+01               -1.20E+01             

NAME         X_U1.X_U15.S1           X_U1.X_U15.S2         
MODEL        X_U1.X_U15.ESD_SW       X_U1.X_U15.ESD_SW     
I LOAD       1.20E-11                1.20E-11             
V LOAD       1.20E+01                1.20E+01             
R LOAD       1.00E+12                1.00E+12             
V CTRL      -1.20E+01               -1.20E+01             

NAME         X_U1.X_U3.S1            X_U1.X_U3.S2          
MODEL        X_U1.X_U3.ESD_SW        X_U1.X_U3.ESD_SW      
I LOAD       1.20E-11                1.20E-11             
V LOAD       1.20E+01                1.20E+01             
R LOAD       1.00E+12                1.00E+12             
V CTRL      -1.20E+01               -1.20E+01             

NAME         X_U1.X_U4.S1            X_U1.X_U4.S2          
MODEL        X_U1.X_U4.ESD_SW        X_U1.X_U4.ESD_SW      
I LOAD       1.20E-11                1.20E-11             
V LOAD       1.20E+01                1.20E+01             
R LOAD       1.00E+12                1.00E+12             
V CTRL      -1.20E+01               -1.20E+01             

NAME         X_U1.X_INA849_OUTAMP.X_U20.S1     
MODEL        X_U1.X_INA849_OUTAMP.X_U20.ESD_SW 
I LOAD       1.20E-11                         
V LOAD       1.20E+01                         
R LOAD       1.00E+12                         
V CTRL      -1.20E+01                         

NAME         X_U1.X_INA849_OUTAMP.X_U20.S2     
MODEL        X_U1.X_INA849_OUTAMP.X_U20.ESD_SW 
I LOAD       1.20E-11                         
V LOAD       1.20E+01                         
R LOAD       1.00E+12                         
V CTRL      -1.20E+01                         

          JOB CONCLUDED

**** 10/06/21 21:52:16 ******* PSpice 17.4.0 (Nov 2018) ******* ID# 0 ********

 ** Profile: "INA849_Test_Circuit-TRANS"  [ H:\OneDrive\Project\Amplifier\simulation\ina849\ina849_test_circuit-pspicefiles\ina849_te


 ****     JOB STATISTICS SUMMARY


******************************************************************************



  License check-out time            =       43.83
  Total job time (using Solver 1)   =        1.94
