
**** 09/29/20 19:14:08 ******* PSpice 17.4.0 (Nov 2018) ******* ID# 0 ********

 ** Profile: "INA848_Test_Circuit-dc_op"  [ C:\Users\a0870489\Documents\DeviceModeling\Development\INA848_SPEC\Release\ina848_test_ci


 ****     CIRCUIT DESCRIPTION


******************************************************************************




** Creating circuit file "dc_op.cir" 
** WARNING: THIS AUTOMATICALLY GENERATED FILE MAY BE OVERWRITTEN BY SUBSEQUENT SIMULATIONS

*Libraries: 
* Profile Libraries :
* Local Libraries :
.LIB "../../../ina848.lib" 
* From [PSPICE NETLIST] section of C:\Users\a0870489\AppData\Roaming\SPB_Data\cdssetup\OrCAD_PSpice\17.4.0\PSpice.ini file:
.lib "nom.lib" 

*Analysis directives: 
.OP
.OPTIONS EXPAND
.OPTIONS LIBRARY
.OPTIONS ADVCONV
.PROBE64 V(alias(*)) I(alias(*)) W(alias(*)) D(alias(*)) NOISE(alias(*)) 
.INC "..\INA848_Test_Circuit.net" 



**** INCLUDING INA848_Test_Circuit.net ****
* source INA848 TEST CIRCUIT
R_RFL         N28823 N28767  1T  
V_VINA         N28695 0  AC 1
+SIN 0 500u 1k 0 0 0
E_E2         0 IN- N28695 0 0.5
E_E1         IN+ 0 N28695 0 0.5
V_Vcc         N29049 0 15Vdc
V_Vee         0 N29106 15Vdc
R_RL         0 OUT  10k  
C_CL         0 OUT  15p  TC=0,0 
X_U1         IN+ IN- N29049 N29106 OUT 0 N28767 N28823 INA848

**** RESUMING dc_op.cir ****
.END

**** FROM LIBRARY ../../../ina848.lib ****
.subckt INA848 IN+ IN- VCC VEE OUT REF +FL -FL
******************************************************
.MODEL S_VSWITCH_1 VSWITCH (RON=50 ROFF=1T VON=500M VOFF=100M)
.MODEL S_VSWITCH_2 VSWITCH (RON=50 ROFF=1T VON=500M VOFF=100M)
.MODEL S_VSWITCH_3 VSWITCH (RON=50 ROFF=1T VON=500M VOFF=100M)
.MODEL S_VSWITCH_4 VSWITCH (RON=50 ROFF=1T VON=500M VOFF=100M)
.MODEL S_VSWITCH_5 VSWITCH (RON=50 ROFF=1T VON=500M VOFF=100M)
.MODEL S_VSWITCH_6 VSWITCH (RON=50 ROFF=1T VON=500M VOFF=100M)
.MODEL S_VSWITCH_7 VSWITCH (RON=50 ROFF=1T VON=500M VOFF=100M)
.MODEL S_VSWITCH_8 VSWITCH (RON=50 ROFF=1T VON=500M VOFF=100M)
.MODEL S_VSWITCH_9 VSWITCH (RON=50 ROFF=1T VON=500M VOFF=100M)
.MODEL S_VSWITCH_10 VSWITCH (RON=50 ROFF=1T VON=500M VOFF=100M)
.MODEL S_VSWITCH_11 VSWITCH (RON=50 ROFF=1T VON=500M VOFF=100M)
.MODEL S_VSWITCH_12 VSWITCH (RON=50 ROFF=1T VON=500M VOFF=100M)
.MODEL R_NOISELESS   RES ( TCE=0 T_ABS=-273.15)
******************************************************
V_OSn       21 22 466.909N
ISINK2      RG+ VEE_B 24U
ISINK1      RG- VEE_B 24U
VB          VCC_B 23 1
I_B         26 MID 25N
I_OS        22 MID 23N
VCM_MINn    30 VEE_B -2.5
VCM_MAXn    31 VCC_B -2.5
VCM_MINp    33 VEE_B -2.5
VCM_MAXp    34 VCC_B -2.5
I_Q         VCC VEE 6.2M
XU1         18 19 VCC VEE 20 VCC_B VEE_B MID INA848_OUTAMP_0
R6          19 20 120K 
R7          18 REF 120.004175K 
R8          NODE1 -FL 6K 
R9          NODE2 +FL 6K 
R10         +FL 18 6K 
R11         -FL 19 6K 
C1          19 20 1F  
C3          18 REF 93.3F   
SW1         OUT VCC OUT VCC  S_VSWITCH_1
SW2         VEE OUT VEE OUT  S_VSWITCH_2
S11         REF VCC REF VCC  S_VSWITCH_3
S10         VEE REF VEE REF  S_VSWITCH_4
R168        20 OUT 10M 
SW3         -FL VCC -FL VCC  S_VSWITCH_5
SW4         VEE -FL VEE -FL  S_VSWITCH_6
SW5         +FL VCC +FL VCC  S_VSWITCH_7
SW6         VEE +FL VEE +FL  S_VSWITCH_8
XU3         23 24 VCC VEE NODE2 MID INA848_INAMP_0
XU2         23 25 VCC VEE NODE1 MID INA848_INAMP_1
XIn13       MID 26 FEMT_0
XIn12       22 MID FEMT_0
S5          22 VCC 22 VCC  S_VSWITCH_9
S7          VEE 22 VEE 22  S_VSWITCH_10
S6          VEE 26 VEE 26  S_VSWITCH_11
S4          26 VCC 26 VCC  S_VSWITCH_12
RG          RG- RG+ R_NOISELESS   30.13555 
RF2         NODE2 RG+ 3K 
RF1         NODE1 RG- 3K 
C61         24 NODE2 2.6P   
C60         25 NODE1 2.6P   
GM2         24 RG+ INp RG+  10.35M
GM1         25 RG- INn RG-  10.35M
RB2         VCC_B 24 41.67K 
RB1         VCC_B 25 41.67K 
R19         22 MID R_NOISELESS   1G 
R18         MID 26 R_NOISELESS   1G 
R_DIFF      26 22 R_NOISELESS   100MEG 
R13         27 21 R_NOISELESS   1M 
R12         28 26 R_NOISELESS   1M 
C_DIFF      26 22 2P   
C_CMn       22 MID 7P   
C_CMp       MID 26 7P   
R17         IN- 22 R_NOISELESS   10M 
R16         IN+ 26 R_NOISELESS   10M 
C2          INn MID 1F   
R4          INn 29 R_NOISELESS   1M 
R3          MID 30 R_NOISELESS   1G 
R2          31 MID R_NOISELESS   1G 
R1          MID 29 R_NOISELESS   1 
XVCM_CLAMPn 27 MID 29 MID 31 30 VCCS_EXT_LIM_0
C27         INp MID 1F   
R114        INp 32 R_NOISELESS   1M 
R78         MID 33 R_NOISELESS   1G 
R77         34 MID R_NOISELESS   1G 
R76         MID 32 R_NOISELESS   1 
XVCM_CLAMPp 28 MID 32 MID 34 33 VCCS_EXT_LIM_0
E1          MID 0 35 0  1
R89         VEE_B 0 R_NOISELESS   1 
R36         36 VEE_B R_NOISELESS   1M 
C16         36 0 1F   
R60         35 36 R_NOISELESS   1MEG 
C15         35 0 1   
R35         35 0 R_NOISELESS   1T 
R59         37 35 R_NOISELESS   1MEG 
C14         37 0 1F   
R34         VCC_B 37 R_NOISELESS   1M 
R88         VCC_B 0 R_NOISELESS   1 
G_VEE_Buffer VEE_B 0 VEE 0  -1
G_VCC_Buffer VCC_B 0 VCC 0  -1
.ENDS INA848


**** EXPANSION OF SUBCIRCUIT X_U1 ****
.MODEL X_U1.S_VSWITCH_1 VSWITCH RON 50 ROFF 1T VON 500M VOFF 100M
.MODEL X_U1.S_VSWITCH_2 VSWITCH RON 50 ROFF 1T VON 500M VOFF 100M
.MODEL X_U1.S_VSWITCH_3 VSWITCH RON 50 ROFF 1T VON 500M VOFF 100M
.MODEL X_U1.S_VSWITCH_4 VSWITCH RON 50 ROFF 1T VON 500M VOFF 100M
.MODEL X_U1.S_VSWITCH_5 VSWITCH RON 50 ROFF 1T VON 500M VOFF 100M
.MODEL X_U1.S_VSWITCH_6 VSWITCH RON 50 ROFF 1T VON 500M VOFF 100M
.MODEL X_U1.S_VSWITCH_7 VSWITCH RON 50 ROFF 1T VON 500M VOFF 100M
.MODEL X_U1.S_VSWITCH_8 VSWITCH RON 50 ROFF 1T VON 500M VOFF 100M
.MODEL X_U1.S_VSWITCH_9 VSWITCH RON 50 ROFF 1T VON 500M VOFF 100M
.MODEL X_U1.S_VSWITCH_10 VSWITCH RON 50 ROFF 1T VON 500M VOFF 100M
.MODEL X_U1.S_VSWITCH_11 VSWITCH RON 50 ROFF 1T VON 500M VOFF 100M
.MODEL X_U1.S_VSWITCH_12 VSWITCH RON 50 ROFF 1T VON 500M VOFF 100M
.MODEL X_U1.R_NOISELESS RES TCE 0 T_ABS -273.15
X_U1.V_OSn X_U1.21 X_U1.22 466.909N
X_U1.ISINK2 X_U1.RG+ X_U1.VEE_B 24U
X_U1.ISINK1 X_U1.RG- X_U1.VEE_B 24U
X_U1.VB X_U1.VCC_B X_U1.23 1
X_U1.I_B X_U1.26 X_U1.MID 25N
X_U1.I_OS X_U1.22 X_U1.MID 23N
X_U1.VCM_MINn X_U1.30 X_U1.VEE_B -2.5
X_U1.VCM_MAXn X_U1.31 X_U1.VCC_B -2.5
X_U1.VCM_MINp X_U1.33 X_U1.VEE_B -2.5
X_U1.VCM_MAXp X_U1.34 X_U1.VCC_B -2.5
X_U1.I_Q N29049 N29106 6.2M
X_U1.XU1 X_U1.18 X_U1.19 N29049 N29106 X_U1.20 X_U1.VCC_B X_U1.VEE_B
+ X_U1.MID INA848_OUTAMP_0
X_U1.R6 X_U1.19 X_U1.20 120K
X_U1.R7 X_U1.18 0 120.004175K
X_U1.R8 X_U1.NODE1 N28823 6K
X_U1.R9 X_U1.NODE2 N28767 6K
X_U1.R10 N28767 X_U1.18 6K
X_U1.R11 N28823 X_U1.19 6K
X_U1.C1 X_U1.19 X_U1.20 1F
X_U1.C3 X_U1.18 0 93.3F
X_U1.SW1 OUT N29049 OUT N29049 X_U1.S_VSWITCH_1
X_U1.SW2 N29106 OUT N29106 OUT X_U1.S_VSWITCH_2
X_U1.S11 0 N29049 0 N29049 X_U1.S_VSWITCH_3
X_U1.S10 N29106 0 N29106 0 X_U1.S_VSWITCH_4
X_U1.R168 X_U1.20 OUT 10M
X_U1.SW3 N28823 N29049 N28823 N29049 X_U1.S_VSWITCH_5
X_U1.SW4 N29106 N28823 N29106 N28823 X_U1.S_VSWITCH_6
X_U1.SW5 N28767 N29049 N28767 N29049 X_U1.S_VSWITCH_7
X_U1.SW6 N29106 N28767 N29106 N28767 X_U1.S_VSWITCH_8
X_U1.XU3 X_U1.23 X_U1.24 N29049 N29106 X_U1.NODE2 X_U1.MID
+ INA848_INAMP_0
X_U1.XU2 X_U1.23 X_U1.25 N29049 N29106 X_U1.NODE1 X_U1.MID
+ INA848_INAMP_1
X_U1.XIn13 X_U1.MID X_U1.26 FEMT_0
X_U1.XIn12 X_U1.22 X_U1.MID FEMT_0
X_U1.S5 X_U1.22 N29049 X_U1.22 N29049 X_U1.S_VSWITCH_9
X_U1.S7 N29106 X_U1.22 N29106 X_U1.22 X_U1.S_VSWITCH_10
X_U1.S6 N29106 X_U1.26 N29106 X_U1.26 X_U1.S_VSWITCH_11
X_U1.S4 X_U1.26 N29049 X_U1.26 N29049 X_U1.S_VSWITCH_12
X_U1.RG X_U1.RG- X_U1.RG+ X_U1.R_NOISELESS 30.13555
X_U1.RF2 X_U1.NODE2 X_U1.RG+ 3K
X_U1.RF1 X_U1.NODE1 X_U1.RG- 3K
X_U1.C61 X_U1.24 X_U1.NODE2 2.6P
X_U1.C60 X_U1.25 X_U1.NODE1 2.6P
X_U1.GM2 X_U1.24 X_U1.RG+ X_U1.INp X_U1.RG+ 10.35M
X_U1.GM1 X_U1.25 X_U1.RG- X_U1.INn X_U1.RG- 10.35M
X_U1.RB2 X_U1.VCC_B X_U1.24 41.67K
X_U1.RB1 X_U1.VCC_B X_U1.25 41.67K
X_U1.R19 X_U1.22 X_U1.MID X_U1.R_NOISELESS 1G
X_U1.R18 X_U1.MID X_U1.26 X_U1.R_NOISELESS 1G
X_U1.R_DIFF X_U1.26 X_U1.22 X_U1.R_NOISELESS 100MEG
X_U1.R13 X_U1.27 X_U1.21 X_U1.R_NOISELESS 1M
X_U1.R12 X_U1.28 X_U1.26 X_U1.R_NOISELESS 1M
X_U1.C_DIFF X_U1.26 X_U1.22 2P
X_U1.C_CMn X_U1.22 X_U1.MID 7P
X_U1.C_CMp X_U1.MID X_U1.26 7P
X_U1.R17 IN- X_U1.22 X_U1.R_NOISELESS 10M
X_U1.R16 IN+ X_U1.26 X_U1.R_NOISELESS 10M
X_U1.C2 X_U1.INn X_U1.MID 1F
X_U1.R4 X_U1.INn X_U1.29 X_U1.R_NOISELESS 1M
X_U1.R3 X_U1.MID X_U1.30 X_U1.R_NOISELESS 1G
X_U1.R2 X_U1.31 X_U1.MID X_U1.R_NOISELESS 1G
X_U1.R1 X_U1.MID X_U1.29 X_U1.R_NOISELESS 1
X_U1.XVCM_CLAMPn X_U1.27 X_U1.MID X_U1.29 X_U1.MID X_U1.31 X_U1.30
+ VCCS_EXT_LIM_0
X_U1.C27 X_U1.INp X_U1.MID 1F
X_U1.R114 X_U1.INp X_U1.32 X_U1.R_NOISELESS 1M
X_U1.R78 X_U1.MID X_U1.33 X_U1.R_NOISELESS 1G
X_U1.R77 X_U1.34 X_U1.MID X_U1.R_NOISELESS 1G
X_U1.R76 X_U1.MID X_U1.32 X_U1.R_NOISELESS 1
X_U1.XVCM_CLAMPp X_U1.28 X_U1.MID X_U1.32 X_U1.MID X_U1.34 X_U1.33
+ VCCS_EXT_LIM_0
X_U1.E1 X_U1.MID 0 X_U1.35 0 1
X_U1.R89 X_U1.VEE_B 0 X_U1.R_NOISELESS 1
X_U1.R36 X_U1.36 X_U1.VEE_B X_U1.R_NOISELESS 1M
X_U1.C16 X_U1.36 0 1F
X_U1.R60 X_U1.35 X_U1.36 X_U1.R_NOISELESS 1MEG
X_U1.C15 X_U1.35 0 1
X_U1.R35 X_U1.35 0 X_U1.R_NOISELESS 1T
X_U1.R59 X_U1.37 X_U1.35 X_U1.R_NOISELESS 1MEG
X_U1.C14 X_U1.37 0 1F
X_U1.R34 X_U1.VCC_B X_U1.37 X_U1.R_NOISELESS 1M
X_U1.R88 X_U1.VCC_B 0 X_U1.R_NOISELESS 1
X_U1.G_VEE_Buffer X_U1.VEE_B 0 N29106 0 -1
X_U1.G_VCC_Buffer X_U1.VCC_B 0 N29049 0 -1

**** FROM LIBRARY ../../../ina848.lib ****
.SUBCKT INA848_OUTAMP_0  IN+ IN- VCC VEE OUT VCC_B VEE_B MID
****************************************************************************
* MODEL DEFINITIONS:
.MODEL S_VSWITCH_1 VSWITCH (RON=1M ROFF=1G VON=900M VOFF=800M)
.MODEL S_VSWITCH_2 VSWITCH (RON=10M ROFF=1G VON=10M VOFF=0)
.MODEL S_VSWITCH_3 VSWITCH (RON=10M ROFF=1G VON=10M VOFF=0)
.MODEL R_NOISELESS   RES ( TCE=0 T_ABS=-273.15)
****************************************************************************
V_GRP       34 MID 156
V_GRN       35 MID -132
V_ISCP      41 MID 30
V_ISCN      42 MID -24
V_ORN       54 VCLP_OP -4.73
V11         56 53 0
V_ORP       52 VCLP_OP 4.73
V12         55 51 0
V4          82 OUT 0
VCM_MIN     86 VEE_B 2
VCM_MAX     87 VCC_B -2
XVN12       19 20 VNSE_OUTAMP_0
XVN11       21 22 VNSE_OUTAMP_0
S1          23 24 SW_OL_OP MID  S_VSWITCH_1
C27         VCLP_OP MID 1N 
R73         25 VCLP_OP R_NOISELESS   100 
E4          25 MID CL_CLAMP_OP MID  1
XCLAWN      MID VIMON_OP VEE_B 26 VCCS_LIM_CLAW-_OUTAMP_0
XCLAWP      VIMON_OP MID 27 VCC_B VCCS_LIM_CLAW+_OUTAMP_0
R109        27 VCC_B R_NOISELESS   1K 
R108        27 28 R_NOISELESS   1M 
R107        VEE_B 26 R_NOISELESS   1K 
R87         29 26 R_NOISELESS   1M 
C32         29 MID 1F 
C31         MID 28 1F 
GVCCS21     VCC_CLP MID 28 MID  -1M
R86         VCC_CLP MID R_NOISELESS   1K 
GVCCS20     VEE_CLP MID 29 MID  -1M
R85         MID VEE_CLP R_NOISELESS   1K 
XCLAW_AMP   VCC_CLP VEE_CLP VOUT_S_OP MID 30 31 CLAMP_AMP_LO_OUTAMP_0
R84         VCC_CLP MID R_NOISELESS   1G 
R83         VEE_CLP MID R_NOISELESS   1G 
R82         30 MID R_NOISELESS   1 
R81         MID 31 R_NOISELESS   1 
R80         30 32 R_NOISELESS   1M 
R79         31 33 R_NOISELESS   1M 
C30         32 MID 1F 
C28         MID 33 1F 
XCLAW_SRC   32 33 CLAW_CLAMP_OP MID VCCS_LIM_3_OUTAMP_0
XGR_AMP     34 35 36 MID 37 38 CLAMP_AMP_HI_OUTAMP_0
R106        34 MID R_NOISELESS   1G 
R105        35 MID R_NOISELESS   1G 
R78         VSENSE_OP 36 R_NOISELESS   1M 
C39         36 MID 1F 
R77         37 MID R_NOISELESS   1 
R102        MID 38 R_NOISELESS   1 
R101        37 39 R_NOISELESS   1M 
R100        38 40 R_NOISELESS   1M 
C38         39 MID 1F 
C37         MID 40 1F 
XGR_SRC     39 40 CLAMP_OP MID VCCS_LIM_GR_OUTAMP_0
XCL_AMP     41 42 VIMON_OP MID 43 44 CLAMP_AMP_LO_OUTAMP_0
R95         43 MID R_NOISELESS   1 
R94         MID 44 R_NOISELESS   1 
R93         43 45 R_NOISELESS   1M 
R92         44 46 R_NOISELESS   1M 
C34         45 MID 1F 
C33         MID 46 1F 
XCL_SRC     45 46 CL_CLAMP_OP MID VCCS_LIM_4_OUTAMP_0
R76         41 MID R_NOISELESS   1G 
R74         MID 42 R_NOISELESS   1G 
C36         47 MID 1N 
R99         48 47 R_NOISELESS   100 
C35         49 MID 1N 
R98         50 49 R_NOISELESS   100 
R97         MID 51 R_NOISELESS   1 
G11         51 MID 52 MID  -1
R96         53 MID R_NOISELESS   1 
G10         53 MID 54 MID  -1
SOR_SWP     55 CLAMP_OP CLAMP_OP 55  S_VSWITCH_2
SOR_SWN     CLAMP_OP 56 56 CLAMP_OP  S_VSWITCH_3
H2          50 MID V11 -1
H3          48 MID V12 1
C26         SW_OL_OP MID 1N 
R75         57 SW_OL_OP R_NOISELESS   100 
R72         57 MID R_NOISELESS   1 
XOL_SENSE   MID 57 49 47 OL_SENSE_OUTAMP_0
R_PSR       22 58 R_NOISELESS   1K 
G_PSR       58 22 59 60  -1M
R58         MID 60 R_NOISELESS   1 
GVCCS19     60 MID 61 MID  -1
C19         62 MID 31.83F 
R57         61 62 R_NOISELESS   10K 
R56         63 61 R_NOISELESS   90K 
R55         MID 63 R_NOISELESS   1 
GVCCS18     63 MID 64 MID  -1
C18         65 MID 12.73N 
R54         64 65 R_NOISELESS   10K 
R53         66 64 R_NOISELESS   3.571K 
R52         MID 66 R_NOISELESS   1 
GVCCS17     66 MID 67 MID  -2
R51         MID 67 R_NOISELESS   10K 
C17         67 68 5.305N 
R50         68 67 R_NOISELESS   10K 
R49         MID 68 R_NOISELESS   1 
GVCCS16     68 MID 69 MID  -1
R48         MID 69 R_NOISELESS   16.63K 
C5          69 70 2.393P 
R47         70 69 R_NOISELESS   100MEG 
GVCCS15     70 MID VEE_B MID  -17.28M
R46         MID 70 R_NOISELESS   1 
R45         MID 59 R_NOISELESS   1 
GVCCS8      59 MID 71 MID  -1
C4          72 MID 31.83F 
R44         71 72 R_NOISELESS   10K 
R43         73 71 R_NOISELESS   90K 
R40         MID 73 R_NOISELESS   1 
G_4         73 MID 74 MID  -1
C6          75 MID 12.73N 
R39         74 75 R_NOISELESS   10K 
R38         76 74 R_NOISELESS   3.571K 
R37         MID 76 R_NOISELESS   1 
G_3         76 MID 77 MID  -2
R2B         MID 77 R_NOISELESS   10K 
C1B         77 78 5.305N 
R36         78 77 R_NOISELESS   10K 
R12         MID 78 R_NOISELESS   1 
G_2         78 MID 79 MID  -1
R2A         MID 79 R_NOISELESS   6.635K 
C1A         79 80 5.997P 
R1A         80 79 R_NOISELESS   100MEG 
G_1         80 MID VCC_B MID  -42.95M
RSRC        MID 80 R_NOISELESS   1 
XIQP        VIMON_OP MID MID VCC VCCS_LIMIT_IQ_OUTAMP_0
XIQN        MID VIMON_OP VEE MID VCCS_LIMIT_IQ_OUTAMP_0
H1          81 MID V4 1K
R71         MID 83 R_NOISELESS   1T 
R70         83 VOUT_S_OP R_NOISELESS   100 
C25         VOUT_S_OP MID 1N 
E5          83 MID OUT MID  1
C24         VIMON_OP MID 1N 
R69         81 VIMON_OP R_NOISELESS   100 
R68         MID 81 R_NOISELESS   1T 
C23         84 MID 1F 
R67         84 85 R_NOISELESS   1M 
R66         MID 86 R_NOISELESS   1T 
R65         87 MID R_NOISELESS   1T 
R64         MID 85 R_NOISELESS   1 
XVCM_CLAMP_OUTAMP 58 MID 85 MID 87 86 VCCS_EXT_LIM_OUTAMP_0
C3          88 MID  3.15000000000000E-0016 
R9          MID 88 R_NOISELESS   1MEG 
GVCCS4      88 MID 89 MID  -1U
C9          89 MID 5.15F 
R29         MID 89 R_NOISELESS   1MEG 
GVCCS10     89 MID VSENSE_OP MID  -1U
XVCCS_LIM_ZO 90 MID MID 91 VCCS_LIM_ZO_OUTAMP_0
R28         91 MID R_NOISELESS   1 
R27         90 MID R_NOISELESS   2.5K 
C8          92 90 39.79F 
R26         92 90 R_NOISELESS   10K 
R25         92 MID R_NOISELESS   1 
GVCCS9      92 MID 93 MID  -5
R24         93 MID R_NOISELESS   2.5K 
C7          94 93 39.79F 
R23         94 93 R_NOISELESS   10K 
R8          94 MID R_NOISELESS   1 
GVCCS3      94 MID 24 MID  -1.792K
R7          24 MID R_NOISELESS   55.85 
C2          23 24 2.653U 
R6          23 24 R_NOISELESS   100K 
RDUMMY      MID 82 R_NOISELESS   40K 
RX          82 91 R_NOISELESS   400K 
R5          23 MID R_NOISELESS   1 
G_AOL_ZO    23 MID CL_CLAMP_OP 82  -89
R4          MID CL_CLAMP_OP R_NOISELESS   1K 
GVCCS2      CL_CLAMP_OP MID CLAW_CLAMP_OP MID  -1M
R3          MID CLAW_CLAMP_OP R_NOISELESS   1K 
GVCCS1      CLAW_CLAMP_OP MID 88 MID  -1M
R14         MID VSENSE_OP R_NOISELESS   1K 
GVCCS5      VSENSE_OP MID CLAMP_OP MID  -1M
C1          CLAMP_OP MID 484.5N 
R2          MID CLAMP_OP R_NOISELESS   1MEG 
XVCCS_LIM_2 95 MID MID CLAMP_OP VCCS_LIM_2_OUTAMP_0
R1          MID 95 R_NOISELESS   1MEG 
XVCCS_LIM_1 84 20 MID 95 VCCS_LIM_1_OUTAMP_0
R16         96 97 R_NOISELESS   100MEG 
R42         97 19 R_NOISELESS   10M 
R41         96 21 R_NOISELESS   10M 
C_DIFF3     96 97 1P   
C_CMN3      97 MID 1P   
C_CMP3      MID 96 1P   
R104        97 MID R_NOISELESS   1T 
R103        MID 96 R_NOISELESS   1T 
R91         IN- 97 R_NOISELESS   10M 
R90         IN+ 96 R_NOISELESS   10M 
.ENDS INA848_OUTAMP_0 

.SUBCKT INA848_INAMP_0  IN+ IN- VCC VEE OUT MID
****************************************************************************
* MODEL DEFINITIONS:
.MODEL R_NOISELESS RES(T_ABS=-273.15)
****************************************************************************
V1          12 OUT 0
R31         MID 8 R_NOISELESS   10G 
R16         MID 9 R_NOISELESS   10G 
R15         MID 10 R_NOISELESS   10G 
XIQP1       VIMON1 MID MID VCC VCCS_LIMIT_INAMP2_IQ_0
XIQN1       MID VIMON1 VEE MID VCCS_LIMIT_INAMP2_IQ_0
H1          11 MID V1 1K
C11         VIMON1 MID 1N   
R30         11 VIMON1 R_NOISELESS   100 
R29         MID 11 R_NOISELESS   1G 
R28         13 MID R_NOISELESS   1 
GVCCS9      13 MID 14 MID  -1
C10         MID 8 530.5F 
R27         8 14 R_NOISELESS   10K 
R26         15 14 R_NOISELESS   2K 
R25         15 MID R_NOISELESS   1 
GVCCS8      15 MID 16 MID  -1
C9          MID 9 530.5F 
R24         9 16 R_NOISELESS   10K 
R23         17 16 R_NOISELESS   2K 
R22         17 MID R_NOISELESS   1 
GVCCS7      17 MID 18 MID  -1.063
C8          19 18 1.989P 
R21         18 MID R_NOISELESS   160K 
R20         19 18 R_NOISELESS   10K 
R19         19 MID R_NOISELESS   1 
GVCCS6      19 MID 20 MID  -1.063
C6          21 20 1.989P 
R18         20 MID R_NOISELESS   160K 
R17         21 20 R_NOISELESS   10K 
R14         21 MID R_NOISELESS   1 
GVCCS5      21 MID 22 MID  -1
C5          MID 10 77.64P 
R13         10 22 R_NOISELESS   10K 
R12         23 22 R_NOISELESS   250 
R11         23 MID R_NOISELESS   1 
GVCCS4      23 MID 24 MID  -1.872
C4          25 24 639.2N 
R10         24 MID R_NOISELESS   11.46K 
R9          25 24 R_NOISELESS   10K 
R8          25 MID R_NOISELESS   1 
GVCCS3      25 MID 26 MID  -1.872
C3          27 26 639.2N 
R7          26 MID R_NOISELESS   11.46K 
R6          27 26 R_NOISELESS   10K 
RDUMMY      MID 12 R_NOISELESS   570.5 
RX          12 13 R_NOISELESS   5.705K 
R5          27 MID R_NOISELESS   1 
G_AOL_ZO    27 MID 28 12  -88.96
C2          MID 28 1.137F 
R4          MID 28 R_NOISELESS   1MEG 
GVCCS2      28 MID 29 MID  -1U
R3          MID 29 R_NOISELESS   1K 
GVCCS1      29 MID 30 MID  -1M
C1          MID 30 6.081N 
R2          MID 30 R_NOISELESS   1MEG 
XVCCS_LIM_2 31 MID MID 30 VCCS_LIM_INAMP2_2_0
R1          MID 31 R_NOISELESS   1MEG 
XVCCS_LIM_1 IN+ IN- MID 31 VCCS_LIM_INAMP2_1_0
.ENDS INA848_INAMP_0 

.SUBCKT INA848_INAMP_1  IN+ IN- VCC VEE OUT MID
****************************************************************************
* MODEL DEFINITIONS:
.MODEL R_NOISELESS RES(T_ABS=-273.15)
****************************************************************************
V1          12 OUT 0
R31         MID 8 R_NOISELESS   10G 
R16         MID 9 R_NOISELESS   10G 
R15         MID 10 R_NOISELESS   10G 
XIQP1       VIMON1 MID MID VCC VCCS_LIMIT_INAMP1_IQ_0
XIQN1       MID VIMON1 VEE MID VCCS_LIMIT_INAMP1_IQ_0
H1          11 MID V1 1K
C11         VIMON1 MID 1N   
R30         11 VIMON1 R_NOISELESS   100 
R29         MID 11 R_NOISELESS   1G 
R28         13 MID R_NOISELESS   1 
GVCCS9      13 MID 14 MID  -1
C10         MID 8 530.5F 
R27         8 14 R_NOISELESS   10K 
R26         15 14 R_NOISELESS   2K 
R25         15 MID R_NOISELESS   1 
GVCCS8      15 MID 16 MID  -1
C9          MID 9 530.5F 
R24         9 16 R_NOISELESS   10K 
R23         17 16 R_NOISELESS   2K 
R22         17 MID R_NOISELESS   1 
GVCCS7      17 MID 18 MID  -1.063
C8          19 18 1.989P 
R21         18 MID R_NOISELESS   160K 
R20         19 18 R_NOISELESS   10K 
R19         19 MID R_NOISELESS   1 
GVCCS6      19 MID 20 MID  -1.063
C6          21 20 1.989P 
R18         20 MID R_NOISELESS   160K 
R17         21 20 R_NOISELESS   10K 
R14         21 MID R_NOISELESS   1 
GVCCS5      21 MID 22 MID  -1
C5          MID 10 77.64P 
R13         10 22 R_NOISELESS   10K 
R12         23 22 R_NOISELESS   250 
R11         23 MID R_NOISELESS   1 
GVCCS4      23 MID 24 MID  -1.872
C4          25 24 639.2N 
R10         24 MID R_NOISELESS   11.46K 
R9          25 24 R_NOISELESS   10K 
R8          25 MID R_NOISELESS   1 
GVCCS3      25 MID 26 MID  -1.872
C3          27 26 639.2N 
R7          26 MID R_NOISELESS   11.46K 
R6          27 26 R_NOISELESS   10K 
RDUMMY      MID 12 R_NOISELESS   570.5 
RX          12 13 R_NOISELESS   5.705K 
R5          27 MID R_NOISELESS   1 
G_AOL_ZO    27 MID 28 12  -88.96
C2          MID 28 1.137F 
R4          MID 28 R_NOISELESS   1MEG 
GVCCS2      28 MID 29 MID  -1U
R3          MID 29 R_NOISELESS   1K 
GVCCS1      29 MID 30 MID  -1M
C1          MID 30 6.081N 
R2          MID 30 R_NOISELESS   1MEG 
XVCCS_LIM_2 31 MID MID 30 VCCS_LIM_INAMP1_2_0
R1          MID 31 R_NOISELESS   1MEG 
XVCCS_LIM_1 IN+ IN- MID 31 VCCS_LIM_INAMP1_1_0
.ENDS INA848_INAMP_1 

.SUBCKT FEMT_0  1 2
* INPUT VARIABLES
* SET UP 1/F NOISE
* FLWF = 1/F FREQUENCY IN HZ
.PARAM FLWF=0.1
* NLFF = CURRENT NOISE DENSITY AT 1/F FREQUENCY IN FA/RT(HZ)
.PARAM NLFF=11.3E3
* SET UP BROADBAND NOISE
* NVRF = BROADBAND CURRENT NOISE DENSITY IN FA/RT(HZ)
.PARAM NVRF=1.315E3
* CALCULATED VALUES
.PARAM GLFF={PWR(FLWF,0.25)*NLFF/1164}
.PARAM RNVF={1.184*PWR(NVRF,2)}
.MODEL DVNF D KF={PWR(FLWF,0.5)/1E11} IS=1.0E-16
* CIRCUIT CONNECTIONS
I1 0 7 10E-3
I2 0 8 10E-3
D1 7 0 DVNF
D2 8 0 DVNF
E1 3 6 7 8 {GLFF}
R1 3 0 1E9
R2 3 0 1E9
R3 3 6 1E9
E2 6 4 5 0 10
R4 5 0 {RNVF}
R5 5 0 {RNVF}
R6 3 4 1E9
R7 4 0 1E9
G1 1 2 3 4 1E-6
.ENDS

.SUBCKT VCCS_EXT_LIM_0  VIN+ VIN- IOUT- IOUT+ VP+ VP-
.PARAM GAIN = 1
G1 IOUT+ IOUT- VALUE={LIMIT(GAIN*V(VIN+,VIN-),V(VP-,VIN-), V(VP+,VIN-))}
.ENDS


**** EXPANSION OF SUBCIRCUIT X_U1.XU1 ****
.MODEL X_U1.XU1.S_VSWITCH_1 VSWITCH RON 1M ROFF 1G VON 900M VOFF 800M
.MODEL X_U1.XU1.S_VSWITCH_2 VSWITCH RON 10M ROFF 1G VON 10M VOFF 0
.MODEL X_U1.XU1.S_VSWITCH_3 VSWITCH RON 10M ROFF 1G VON 10M VOFF 0
.MODEL X_U1.XU1.R_NOISELESS RES TCE 0 T_ABS -273.15
X_U1.XU1.V_GRP X_U1.XU1.34 X_U1.MID 156
X_U1.XU1.V_GRN X_U1.XU1.35 X_U1.MID -132
X_U1.XU1.V_ISCP X_U1.XU1.41 X_U1.MID 30
X_U1.XU1.V_ISCN X_U1.XU1.42 X_U1.MID -24
X_U1.XU1.V_ORN X_U1.XU1.54 X_U1.XU1.VCLP_OP -4.73
X_U1.XU1.V11 X_U1.XU1.56 X_U1.XU1.53 0
X_U1.XU1.V_ORP X_U1.XU1.52 X_U1.XU1.VCLP_OP 4.73
X_U1.XU1.V12 X_U1.XU1.55 X_U1.XU1.51 0
X_U1.XU1.V4 X_U1.XU1.82 X_U1.20 0
X_U1.XU1.VCM_MIN X_U1.XU1.86 X_U1.VEE_B 2
X_U1.XU1.VCM_MAX X_U1.XU1.87 X_U1.VCC_B -2
X_U1.XU1.XVN12 X_U1.XU1.19 X_U1.XU1.20 VNSE_OUTAMP_0
X_U1.XU1.XVN11 X_U1.XU1.21 X_U1.XU1.22 VNSE_OUTAMP_0
X_U1.XU1.S1 X_U1.XU1.23 X_U1.XU1.24 X_U1.XU1.SW_OL_OP X_U1.MID
+ X_U1.XU1.S_VSWITCH_1
X_U1.XU1.C27 X_U1.XU1.VCLP_OP X_U1.MID 1N
X_U1.XU1.R73 X_U1.XU1.25 X_U1.XU1.VCLP_OP X_U1.XU1.R_NOISELESS 100
X_U1.XU1.E4 X_U1.XU1.25 X_U1.MID X_U1.XU1.CL_CLAMP_OP X_U1.MID 1
X_U1.XU1.XCLAWN X_U1.MID X_U1.XU1.VIMON_OP X_U1.VEE_B X_U1.XU1.26
+ VCCS_LIM_CLAW-_OUTAMP_0
X_U1.XU1.XCLAWP X_U1.XU1.VIMON_OP X_U1.MID X_U1.XU1.27 X_U1.VCC_B
+ VCCS_LIM_CLAW+_OUTAMP_0
X_U1.XU1.R109 X_U1.XU1.27 X_U1.VCC_B X_U1.XU1.R_NOISELESS 1K
X_U1.XU1.R108 X_U1.XU1.27 X_U1.XU1.28 X_U1.XU1.R_NOISELESS 1M
X_U1.XU1.R107 X_U1.VEE_B X_U1.XU1.26 X_U1.XU1.R_NOISELESS 1K
X_U1.XU1.R87 X_U1.XU1.29 X_U1.XU1.26 X_U1.XU1.R_NOISELESS 1M
X_U1.XU1.C32 X_U1.XU1.29 X_U1.MID 1F
X_U1.XU1.C31 X_U1.MID X_U1.XU1.28 1F
X_U1.XU1.GVCCS21 X_U1.XU1.VCC_CLP X_U1.MID X_U1.XU1.28 X_U1.MID -1M
X_U1.XU1.R86 X_U1.XU1.VCC_CLP X_U1.MID X_U1.XU1.R_NOISELESS 1K
X_U1.XU1.GVCCS20 X_U1.XU1.VEE_CLP X_U1.MID X_U1.XU1.29 X_U1.MID -1M
X_U1.XU1.R85 X_U1.MID X_U1.XU1.VEE_CLP X_U1.XU1.R_NOISELESS 1K
X_U1.XU1.XCLAW_AMP X_U1.XU1.VCC_CLP X_U1.XU1.VEE_CLP
+ X_U1.XU1.VOUT_S_OP X_U1.MID X_U1.XU1.30 X_U1.XU1.31
+ CLAMP_AMP_LO_OUTAMP_0
X_U1.XU1.R84 X_U1.XU1.VCC_CLP X_U1.MID X_U1.XU1.R_NOISELESS 1G
X_U1.XU1.R83 X_U1.XU1.VEE_CLP X_U1.MID X_U1.XU1.R_NOISELESS 1G
X_U1.XU1.R82 X_U1.XU1.30 X_U1.MID X_U1.XU1.R_NOISELESS 1
X_U1.XU1.R81 X_U1.MID X_U1.XU1.31 X_U1.XU1.R_NOISELESS 1
X_U1.XU1.R80 X_U1.XU1.30 X_U1.XU1.32 X_U1.XU1.R_NOISELESS 1M
X_U1.XU1.R79 X_U1.XU1.31 X_U1.XU1.33 X_U1.XU1.R_NOISELESS 1M
X_U1.XU1.C30 X_U1.XU1.32 X_U1.MID 1F
X_U1.XU1.C28 X_U1.MID X_U1.XU1.33 1F
X_U1.XU1.XCLAW_SRC X_U1.XU1.32 X_U1.XU1.33 X_U1.XU1.CLAW_CLAMP_OP
+ X_U1.MID VCCS_LIM_3_OUTAMP_0
X_U1.XU1.XGR_AMP X_U1.XU1.34 X_U1.XU1.35 X_U1.XU1.36 X_U1.MID
+ X_U1.XU1.37 X_U1.XU1.38 CLAMP_AMP_HI_OUTAMP_0
X_U1.XU1.R106 X_U1.XU1.34 X_U1.MID X_U1.XU1.R_NOISELESS 1G
X_U1.XU1.R105 X_U1.XU1.35 X_U1.MID X_U1.XU1.R_NOISELESS 1G
X_U1.XU1.R78 X_U1.XU1.VSENSE_OP X_U1.XU1.36 X_U1.XU1.R_NOISELESS 1M
X_U1.XU1.C39 X_U1.XU1.36 X_U1.MID 1F
X_U1.XU1.R77 X_U1.XU1.37 X_U1.MID X_U1.XU1.R_NOISELESS 1
X_U1.XU1.R102 X_U1.MID X_U1.XU1.38 X_U1.XU1.R_NOISELESS 1
X_U1.XU1.R101 X_U1.XU1.37 X_U1.XU1.39 X_U1.XU1.R_NOISELESS 1M
X_U1.XU1.R100 X_U1.XU1.38 X_U1.XU1.40 X_U1.XU1.R_NOISELESS 1M
X_U1.XU1.C38 X_U1.XU1.39 X_U1.MID 1F
X_U1.XU1.C37 X_U1.MID X_U1.XU1.40 1F
X_U1.XU1.XGR_SRC X_U1.XU1.39 X_U1.XU1.40 X_U1.XU1.CLAMP_OP X_U1.MID
+ VCCS_LIM_GR_OUTAMP_0
X_U1.XU1.XCL_AMP X_U1.XU1.41 X_U1.XU1.42 X_U1.XU1.VIMON_OP X_U1.MID
+ X_U1.XU1.43 X_U1.XU1.44 CLAMP_AMP_LO_OUTAMP_0
X_U1.XU1.R95 X_U1.XU1.43 X_U1.MID X_U1.XU1.R_NOISELESS 1
X_U1.XU1.R94 X_U1.MID X_U1.XU1.44 X_U1.XU1.R_NOISELESS 1
X_U1.XU1.R93 X_U1.XU1.43 X_U1.XU1.45 X_U1.XU1.R_NOISELESS 1M
X_U1.XU1.R92 X_U1.XU1.44 X_U1.XU1.46 X_U1.XU1.R_NOISELESS 1M
X_U1.XU1.C34 X_U1.XU1.45 X_U1.MID 1F
X_U1.XU1.C33 X_U1.MID X_U1.XU1.46 1F
X_U1.XU1.XCL_SRC X_U1.XU1.45 X_U1.XU1.46 X_U1.XU1.CL_CLAMP_OP
+ X_U1.MID VCCS_LIM_4_OUTAMP_0
X_U1.XU1.R76 X_U1.XU1.41 X_U1.MID X_U1.XU1.R_NOISELESS 1G
X_U1.XU1.R74 X_U1.MID X_U1.XU1.42 X_U1.XU1.R_NOISELESS 1G
X_U1.XU1.C36 X_U1.XU1.47 X_U1.MID 1N
X_U1.XU1.R99 X_U1.XU1.48 X_U1.XU1.47 X_U1.XU1.R_NOISELESS 100
X_U1.XU1.C35 X_U1.XU1.49 X_U1.MID 1N
X_U1.XU1.R98 X_U1.XU1.50 X_U1.XU1.49 X_U1.XU1.R_NOISELESS 100
X_U1.XU1.R97 X_U1.MID X_U1.XU1.51 X_U1.XU1.R_NOISELESS 1
X_U1.XU1.G11 X_U1.XU1.51 X_U1.MID X_U1.XU1.52 X_U1.MID -1
X_U1.XU1.R96 X_U1.XU1.53 X_U1.MID X_U1.XU1.R_NOISELESS 1
X_U1.XU1.G10 X_U1.XU1.53 X_U1.MID X_U1.XU1.54 X_U1.MID -1
X_U1.XU1.SOR_SWP X_U1.XU1.55 X_U1.XU1.CLAMP_OP X_U1.XU1.CLAMP_OP
+ X_U1.XU1.55 X_U1.XU1.S_VSWITCH_2
X_U1.XU1.SOR_SWN X_U1.XU1.CLAMP_OP X_U1.XU1.56 X_U1.XU1.56
+ X_U1.XU1.CLAMP_OP X_U1.XU1.S_VSWITCH_3
X_U1.XU1.H2 X_U1.XU1.50 X_U1.MID X_U1.XU1.V11 -1
X_U1.XU1.H3 X_U1.XU1.48 X_U1.MID X_U1.XU1.V12 1
X_U1.XU1.C26 X_U1.XU1.SW_OL_OP X_U1.MID 1N
X_U1.XU1.R75 X_U1.XU1.57 X_U1.XU1.SW_OL_OP X_U1.XU1.R_NOISELESS 100
X_U1.XU1.R72 X_U1.XU1.57 X_U1.MID X_U1.XU1.R_NOISELESS 1
X_U1.XU1.XOL_SENSE X_U1.MID X_U1.XU1.57 X_U1.XU1.49 X_U1.XU1.47
+ OL_SENSE_OUTAMP_0
X_U1.XU1.R_PSR X_U1.XU1.22 X_U1.XU1.58 X_U1.XU1.R_NOISELESS 1K
X_U1.XU1.G_PSR X_U1.XU1.58 X_U1.XU1.22 X_U1.XU1.59 X_U1.XU1.60 -1M
X_U1.XU1.R58 X_U1.MID X_U1.XU1.60 X_U1.XU1.R_NOISELESS 1
X_U1.XU1.GVCCS19 X_U1.XU1.60 X_U1.MID X_U1.XU1.61 X_U1.MID -1
X_U1.XU1.C19 X_U1.XU1.62 X_U1.MID 31.83F
X_U1.XU1.R57 X_U1.XU1.61 X_U1.XU1.62 X_U1.XU1.R_NOISELESS 10K
X_U1.XU1.R56 X_U1.XU1.63 X_U1.XU1.61 X_U1.XU1.R_NOISELESS 90K
X_U1.XU1.R55 X_U1.MID X_U1.XU1.63 X_U1.XU1.R_NOISELESS 1
X_U1.XU1.GVCCS18 X_U1.XU1.63 X_U1.MID X_U1.XU1.64 X_U1.MID -1
X_U1.XU1.C18 X_U1.XU1.65 X_U1.MID 12.73N
X_U1.XU1.R54 X_U1.XU1.64 X_U1.XU1.65 X_U1.XU1.R_NOISELESS 10K
X_U1.XU1.R53 X_U1.XU1.66 X_U1.XU1.64 X_U1.XU1.R_NOISELESS 3.571K
X_U1.XU1.R52 X_U1.MID X_U1.XU1.66 X_U1.XU1.R_NOISELESS 1
X_U1.XU1.GVCCS17 X_U1.XU1.66 X_U1.MID X_U1.XU1.67 X_U1.MID -2
X_U1.XU1.R51 X_U1.MID X_U1.XU1.67 X_U1.XU1.R_NOISELESS 10K
X_U1.XU1.C17 X_U1.XU1.67 X_U1.XU1.68 5.305N
X_U1.XU1.R50 X_U1.XU1.68 X_U1.XU1.67 X_U1.XU1.R_NOISELESS 10K
X_U1.XU1.R49 X_U1.MID X_U1.XU1.68 X_U1.XU1.R_NOISELESS 1
X_U1.XU1.GVCCS16 X_U1.XU1.68 X_U1.MID X_U1.XU1.69 X_U1.MID -1
X_U1.XU1.R48 X_U1.MID X_U1.XU1.69 X_U1.XU1.R_NOISELESS 16.63K
X_U1.XU1.C5 X_U1.XU1.69 X_U1.XU1.70 2.393P
X_U1.XU1.R47 X_U1.XU1.70 X_U1.XU1.69 X_U1.XU1.R_NOISELESS 100MEG
X_U1.XU1.GVCCS15 X_U1.XU1.70 X_U1.MID X_U1.VEE_B X_U1.MID -17.28M
X_U1.XU1.R46 X_U1.MID X_U1.XU1.70 X_U1.XU1.R_NOISELESS 1
X_U1.XU1.R45 X_U1.MID X_U1.XU1.59 X_U1.XU1.R_NOISELESS 1
X_U1.XU1.GVCCS8 X_U1.XU1.59 X_U1.MID X_U1.XU1.71 X_U1.MID -1
X_U1.XU1.C4 X_U1.XU1.72 X_U1.MID 31.83F
X_U1.XU1.R44 X_U1.XU1.71 X_U1.XU1.72 X_U1.XU1.R_NOISELESS 10K
X_U1.XU1.R43 X_U1.XU1.73 X_U1.XU1.71 X_U1.XU1.R_NOISELESS 90K
X_U1.XU1.R40 X_U1.MID X_U1.XU1.73 X_U1.XU1.R_NOISELESS 1
X_U1.XU1.G_4 X_U1.XU1.73 X_U1.MID X_U1.XU1.74 X_U1.MID -1
X_U1.XU1.C6 X_U1.XU1.75 X_U1.MID 12.73N
X_U1.XU1.R39 X_U1.XU1.74 X_U1.XU1.75 X_U1.XU1.R_NOISELESS 10K
X_U1.XU1.R38 X_U1.XU1.76 X_U1.XU1.74 X_U1.XU1.R_NOISELESS 3.571K
X_U1.XU1.R37 X_U1.MID X_U1.XU1.76 X_U1.XU1.R_NOISELESS 1
X_U1.XU1.G_3 X_U1.XU1.76 X_U1.MID X_U1.XU1.77 X_U1.MID -2
X_U1.XU1.R2B X_U1.MID X_U1.XU1.77 X_U1.XU1.R_NOISELESS 10K
X_U1.XU1.C1B X_U1.XU1.77 X_U1.XU1.78 5.305N
X_U1.XU1.R36 X_U1.XU1.78 X_U1.XU1.77 X_U1.XU1.R_NOISELESS 10K
X_U1.XU1.R12 X_U1.MID X_U1.XU1.78 X_U1.XU1.R_NOISELESS 1
X_U1.XU1.G_2 X_U1.XU1.78 X_U1.MID X_U1.XU1.79 X_U1.MID -1
X_U1.XU1.R2A X_U1.MID X_U1.XU1.79 X_U1.XU1.R_NOISELESS 6.635K
X_U1.XU1.C1A X_U1.XU1.79 X_U1.XU1.80 5.997P
X_U1.XU1.R1A X_U1.XU1.80 X_U1.XU1.79 X_U1.XU1.R_NOISELESS 100MEG
X_U1.XU1.G_1 X_U1.XU1.80 X_U1.MID X_U1.VCC_B X_U1.MID -42.95M
X_U1.XU1.RSRC X_U1.MID X_U1.XU1.80 X_U1.XU1.R_NOISELESS 1
X_U1.XU1.XIQP X_U1.XU1.VIMON_OP X_U1.MID X_U1.MID N29049
+ VCCS_LIMIT_IQ_OUTAMP_0
X_U1.XU1.XIQN X_U1.MID X_U1.XU1.VIMON_OP N29106 X_U1.MID
+ VCCS_LIMIT_IQ_OUTAMP_0
X_U1.XU1.H1 X_U1.XU1.81 X_U1.MID X_U1.XU1.V4 1K
X_U1.XU1.R71 X_U1.MID X_U1.XU1.83 X_U1.XU1.R_NOISELESS 1T
X_U1.XU1.R70 X_U1.XU1.83 X_U1.XU1.VOUT_S_OP X_U1.XU1.R_NOISELESS 100
X_U1.XU1.C25 X_U1.XU1.VOUT_S_OP X_U1.MID 1N
X_U1.XU1.E5 X_U1.XU1.83 X_U1.MID X_U1.20 X_U1.MID 1
X_U1.XU1.C24 X_U1.XU1.VIMON_OP X_U1.MID 1N
X_U1.XU1.R69 X_U1.XU1.81 X_U1.XU1.VIMON_OP X_U1.XU1.R_NOISELESS 100
X_U1.XU1.R68 X_U1.MID X_U1.XU1.81 X_U1.XU1.R_NOISELESS 1T
X_U1.XU1.C23 X_U1.XU1.84 X_U1.MID 1F
X_U1.XU1.R67 X_U1.XU1.84 X_U1.XU1.85 X_U1.XU1.R_NOISELESS 1M
X_U1.XU1.R66 X_U1.MID X_U1.XU1.86 X_U1.XU1.R_NOISELESS 1T
X_U1.XU1.R65 X_U1.XU1.87 X_U1.MID X_U1.XU1.R_NOISELESS 1T
X_U1.XU1.R64 X_U1.MID X_U1.XU1.85 X_U1.XU1.R_NOISELESS 1
X_U1.XU1.XVCM_CLAMP_OUTAMP X_U1.XU1.58 X_U1.MID X_U1.XU1.85 X_U1.MID
+ X_U1.XU1.87 X_U1.XU1.86 VCCS_EXT_LIM_OUTAMP_0
X_U1.XU1.C3 X_U1.XU1.88 X_U1.MID 3.15000000000000E-0016
X_U1.XU1.R9 X_U1.MID X_U1.XU1.88 X_U1.XU1.R_NOISELESS 1MEG
X_U1.XU1.GVCCS4 X_U1.XU1.88 X_U1.MID X_U1.XU1.89 X_U1.MID -1U
X_U1.XU1.C9 X_U1.XU1.89 X_U1.MID 5.15F
X_U1.XU1.R29 X_U1.MID X_U1.XU1.89 X_U1.XU1.R_NOISELESS 1MEG
X_U1.XU1.GVCCS10 X_U1.XU1.89 X_U1.MID X_U1.XU1.VSENSE_OP X_U1.MID -1U
X_U1.XU1.XVCCS_LIM_ZO X_U1.XU1.90 X_U1.MID X_U1.MID X_U1.XU1.91
+ VCCS_LIM_ZO_OUTAMP_0
X_U1.XU1.R28 X_U1.XU1.91 X_U1.MID X_U1.XU1.R_NOISELESS 1
X_U1.XU1.R27 X_U1.XU1.90 X_U1.MID X_U1.XU1.R_NOISELESS 2.5K
X_U1.XU1.C8 X_U1.XU1.92 X_U1.XU1.90 39.79F
X_U1.XU1.R26 X_U1.XU1.92 X_U1.XU1.90 X_U1.XU1.R_NOISELESS 10K
X_U1.XU1.R25 X_U1.XU1.92 X_U1.MID X_U1.XU1.R_NOISELESS 1
X_U1.XU1.GVCCS9 X_U1.XU1.92 X_U1.MID X_U1.XU1.93 X_U1.MID -5
X_U1.XU1.R24 X_U1.XU1.93 X_U1.MID X_U1.XU1.R_NOISELESS 2.5K
X_U1.XU1.C7 X_U1.XU1.94 X_U1.XU1.93 39.79F
X_U1.XU1.R23 X_U1.XU1.94 X_U1.XU1.93 X_U1.XU1.R_NOISELESS 10K
X_U1.XU1.R8 X_U1.XU1.94 X_U1.MID X_U1.XU1.R_NOISELESS 1
X_U1.XU1.GVCCS3 X_U1.XU1.94 X_U1.MID X_U1.XU1.24 X_U1.MID -1.792K
X_U1.XU1.R7 X_U1.XU1.24 X_U1.MID X_U1.XU1.R_NOISELESS 55.85
X_U1.XU1.C2 X_U1.XU1.23 X_U1.XU1.24 2.653U
X_U1.XU1.R6 X_U1.XU1.23 X_U1.XU1.24 X_U1.XU1.R_NOISELESS 100K
X_U1.XU1.RDUMMY X_U1.MID X_U1.XU1.82 X_U1.XU1.R_NOISELESS 40K
X_U1.XU1.RX X_U1.XU1.82 X_U1.XU1.91 X_U1.XU1.R_NOISELESS 400K
X_U1.XU1.R5 X_U1.XU1.23 X_U1.MID X_U1.XU1.R_NOISELESS 1
X_U1.XU1.G_AOL_ZO X_U1.XU1.23 X_U1.MID X_U1.XU1.CL_CLAMP_OP
+ X_U1.XU1.82 -89
X_U1.XU1.R4 X_U1.MID X_U1.XU1.CL_CLAMP_OP X_U1.XU1.R_NOISELESS 1K
X_U1.XU1.GVCCS2 X_U1.XU1.CL_CLAMP_OP X_U1.MID X_U1.XU1.CLAW_CLAMP_OP
+ X_U1.MID -1M
X_U1.XU1.R3 X_U1.MID X_U1.XU1.CLAW_CLAMP_OP X_U1.XU1.R_NOISELESS 1K
X_U1.XU1.GVCCS1 X_U1.XU1.CLAW_CLAMP_OP X_U1.MID X_U1.XU1.88 X_U1.MID
+ -1M
X_U1.XU1.R14 X_U1.MID X_U1.XU1.VSENSE_OP X_U1.XU1.R_NOISELESS 1K
X_U1.XU1.GVCCS5 X_U1.XU1.VSENSE_OP X_U1.MID X_U1.XU1.CLAMP_OP
+ X_U1.MID -1M
X_U1.XU1.C1 X_U1.XU1.CLAMP_OP X_U1.MID 484.5N
X_U1.XU1.R2 X_U1.MID X_U1.XU1.CLAMP_OP X_U1.XU1.R_NOISELESS 1MEG
X_U1.XU1.XVCCS_LIM_2 X_U1.XU1.95 X_U1.MID X_U1.MID X_U1.XU1.CLAMP_OP
+ VCCS_LIM_2_OUTAMP_0
X_U1.XU1.R1 X_U1.MID X_U1.XU1.95 X_U1.XU1.R_NOISELESS 1MEG
X_U1.XU1.XVCCS_LIM_1 X_U1.XU1.84 X_U1.XU1.20 X_U1.MID X_U1.XU1.95
+ VCCS_LIM_1_OUTAMP_0
X_U1.XU1.R16 X_U1.XU1.96 X_U1.XU1.97 X_U1.XU1.R_NOISELESS 100MEG
X_U1.XU1.R42 X_U1.XU1.97 X_U1.XU1.19 X_U1.XU1.R_NOISELESS 10M
X_U1.XU1.R41 X_U1.XU1.96 X_U1.XU1.21 X_U1.XU1.R_NOISELESS 10M
X_U1.XU1.C_DIFF3 X_U1.XU1.96 X_U1.XU1.97 1P
X_U1.XU1.C_CMN3 X_U1.XU1.97 X_U1.MID 1P
X_U1.XU1.C_CMP3 X_U1.MID X_U1.XU1.96 1P
X_U1.XU1.R104 X_U1.XU1.97 X_U1.MID X_U1.XU1.R_NOISELESS 1T
X_U1.XU1.R103 X_U1.MID X_U1.XU1.96 X_U1.XU1.R_NOISELESS 1T
X_U1.XU1.R91 X_U1.19 X_U1.XU1.97 X_U1.XU1.R_NOISELESS 10M
X_U1.XU1.R90 X_U1.18 X_U1.XU1.96 X_U1.XU1.R_NOISELESS 10M


**** EXPANSION OF SUBCIRCUIT X_U1.XU3 ****
.MODEL X_U1.XU3.R_NOISELESS RES T_ABS -273.15
X_U1.XU3.V1 X_U1.XU3.12 X_U1.NODE2 0
X_U1.XU3.R31 X_U1.MID X_U1.XU3.8 X_U1.XU3.R_NOISELESS 10G
X_U1.XU3.R16 X_U1.MID X_U1.XU3.9 X_U1.XU3.R_NOISELESS 10G
X_U1.XU3.R15 X_U1.MID X_U1.XU3.10 X_U1.XU3.R_NOISELESS 10G
X_U1.XU3.XIQP1 X_U1.XU3.VIMON1 X_U1.MID X_U1.MID N29049
+ VCCS_LIMIT_INAMP2_IQ_0
X_U1.XU3.XIQN1 X_U1.MID X_U1.XU3.VIMON1 N29106 X_U1.MID
+ VCCS_LIMIT_INAMP2_IQ_0
X_U1.XU3.H1 X_U1.XU3.11 X_U1.MID X_U1.XU3.V1 1K
X_U1.XU3.C11 X_U1.XU3.VIMON1 X_U1.MID 1N
X_U1.XU3.R30 X_U1.XU3.11 X_U1.XU3.VIMON1 X_U1.XU3.R_NOISELESS 100
X_U1.XU3.R29 X_U1.MID X_U1.XU3.11 X_U1.XU3.R_NOISELESS 1G
X_U1.XU3.R28 X_U1.XU3.13 X_U1.MID X_U1.XU3.R_NOISELESS 1
X_U1.XU3.GVCCS9 X_U1.XU3.13 X_U1.MID X_U1.XU3.14 X_U1.MID -1
X_U1.XU3.C10 X_U1.MID X_U1.XU3.8 530.5F
X_U1.XU3.R27 X_U1.XU3.8 X_U1.XU3.14 X_U1.XU3.R_NOISELESS 10K
X_U1.XU3.R26 X_U1.XU3.15 X_U1.XU3.14 X_U1.XU3.R_NOISELESS 2K
X_U1.XU3.R25 X_U1.XU3.15 X_U1.MID X_U1.XU3.R_NOISELESS 1
X_U1.XU3.GVCCS8 X_U1.XU3.15 X_U1.MID X_U1.XU3.16 X_U1.MID -1
X_U1.XU3.C9 X_U1.MID X_U1.XU3.9 530.5F
X_U1.XU3.R24 X_U1.XU3.9 X_U1.XU3.16 X_U1.XU3.R_NOISELESS 10K
X_U1.XU3.R23 X_U1.XU3.17 X_U1.XU3.16 X_U1.XU3.R_NOISELESS 2K
X_U1.XU3.R22 X_U1.XU3.17 X_U1.MID X_U1.XU3.R_NOISELESS 1
X_U1.XU3.GVCCS7 X_U1.XU3.17 X_U1.MID X_U1.XU3.18 X_U1.MID -1.063
X_U1.XU3.C8 X_U1.XU3.19 X_U1.XU3.18 1.989P
X_U1.XU3.R21 X_U1.XU3.18 X_U1.MID X_U1.XU3.R_NOISELESS 160K
X_U1.XU3.R20 X_U1.XU3.19 X_U1.XU3.18 X_U1.XU3.R_NOISELESS 10K
X_U1.XU3.R19 X_U1.XU3.19 X_U1.MID X_U1.XU3.R_NOISELESS 1
X_U1.XU3.GVCCS6 X_U1.XU3.19 X_U1.MID X_U1.XU3.20 X_U1.MID -1.063
X_U1.XU3.C6 X_U1.XU3.21 X_U1.XU3.20 1.989P
X_U1.XU3.R18 X_U1.XU3.20 X_U1.MID X_U1.XU3.R_NOISELESS 160K
X_U1.XU3.R17 X_U1.XU3.21 X_U1.XU3.20 X_U1.XU3.R_NOISELESS 10K
X_U1.XU3.R14 X_U1.XU3.21 X_U1.MID X_U1.XU3.R_NOISELESS 1
X_U1.XU3.GVCCS5 X_U1.XU3.21 X_U1.MID X_U1.XU3.22 X_U1.MID -1
X_U1.XU3.C5 X_U1.MID X_U1.XU3.10 77.64P
X_U1.XU3.R13 X_U1.XU3.10 X_U1.XU3.22 X_U1.XU3.R_NOISELESS 10K
X_U1.XU3.R12 X_U1.XU3.23 X_U1.XU3.22 X_U1.XU3.R_NOISELESS 250
X_U1.XU3.R11 X_U1.XU3.23 X_U1.MID X_U1.XU3.R_NOISELESS 1
X_U1.XU3.GVCCS4 X_U1.XU3.23 X_U1.MID X_U1.XU3.24 X_U1.MID -1.872
X_U1.XU3.C4 X_U1.XU3.25 X_U1.XU3.24 639.2N
X_U1.XU3.R10 X_U1.XU3.24 X_U1.MID X_U1.XU3.R_NOISELESS 11.46K
X_U1.XU3.R9 X_U1.XU3.25 X_U1.XU3.24 X_U1.XU3.R_NOISELESS 10K
X_U1.XU3.R8 X_U1.XU3.25 X_U1.MID X_U1.XU3.R_NOISELESS 1
X_U1.XU3.GVCCS3 X_U1.XU3.25 X_U1.MID X_U1.XU3.26 X_U1.MID -1.872
X_U1.XU3.C3 X_U1.XU3.27 X_U1.XU3.26 639.2N
X_U1.XU3.R7 X_U1.XU3.26 X_U1.MID X_U1.XU3.R_NOISELESS 11.46K
X_U1.XU3.R6 X_U1.XU3.27 X_U1.XU3.26 X_U1.XU3.R_NOISELESS 10K
X_U1.XU3.RDUMMY X_U1.MID X_U1.XU3.12 X_U1.XU3.R_NOISELESS 570.5
X_U1.XU3.RX X_U1.XU3.12 X_U1.XU3.13 X_U1.XU3.R_NOISELESS 5.705K
X_U1.XU3.R5 X_U1.XU3.27 X_U1.MID X_U1.XU3.R_NOISELESS 1
X_U1.XU3.G_AOL_ZO X_U1.XU3.27 X_U1.MID X_U1.XU3.28 X_U1.XU3.12 -88.96
X_U1.XU3.C2 X_U1.MID X_U1.XU3.28 1.137F
X_U1.XU3.R4 X_U1.MID X_U1.XU3.28 X_U1.XU3.R_NOISELESS 1MEG
X_U1.XU3.GVCCS2 X_U1.XU3.28 X_U1.MID X_U1.XU3.29 X_U1.MID -1U
X_U1.XU3.R3 X_U1.MID X_U1.XU3.29 X_U1.XU3.R_NOISELESS 1K
X_U1.XU3.GVCCS1 X_U1.XU3.29 X_U1.MID X_U1.XU3.30 X_U1.MID -1M
X_U1.XU3.C1 X_U1.MID X_U1.XU3.30 6.081N
X_U1.XU3.R2 X_U1.MID X_U1.XU3.30 X_U1.XU3.R_NOISELESS 1MEG
X_U1.XU3.XVCCS_LIM_2 X_U1.XU3.31 X_U1.MID X_U1.MID X_U1.XU3.30
+ VCCS_LIM_INAMP2_2_0
X_U1.XU3.R1 X_U1.MID X_U1.XU3.31 X_U1.XU3.R_NOISELESS 1MEG
X_U1.XU3.XVCCS_LIM_1 X_U1.23 X_U1.24 X_U1.MID X_U1.XU3.31
+ VCCS_LIM_INAMP2_1_0


**** EXPANSION OF SUBCIRCUIT X_U1.XU2 ****
.MODEL X_U1.XU2.R_NOISELESS RES T_ABS -273.15
X_U1.XU2.V1 X_U1.XU2.12 X_U1.NODE1 0
X_U1.XU2.R31 X_U1.MID X_U1.XU2.8 X_U1.XU2.R_NOISELESS 10G
X_U1.XU2.R16 X_U1.MID X_U1.XU2.9 X_U1.XU2.R_NOISELESS 10G
X_U1.XU2.R15 X_U1.MID X_U1.XU2.10 X_U1.XU2.R_NOISELESS 10G
X_U1.XU2.XIQP1 X_U1.XU2.VIMON1 X_U1.MID X_U1.MID N29049
+ VCCS_LIMIT_INAMP1_IQ_0
X_U1.XU2.XIQN1 X_U1.MID X_U1.XU2.VIMON1 N29106 X_U1.MID
+ VCCS_LIMIT_INAMP1_IQ_0
X_U1.XU2.H1 X_U1.XU2.11 X_U1.MID X_U1.XU2.V1 1K
X_U1.XU2.C11 X_U1.XU2.VIMON1 X_U1.MID 1N
X_U1.XU2.R30 X_U1.XU2.11 X_U1.XU2.VIMON1 X_U1.XU2.R_NOISELESS 100
X_U1.XU2.R29 X_U1.MID X_U1.XU2.11 X_U1.XU2.R_NOISELESS 1G
X_U1.XU2.R28 X_U1.XU2.13 X_U1.MID X_U1.XU2.R_NOISELESS 1
X_U1.XU2.GVCCS9 X_U1.XU2.13 X_U1.MID X_U1.XU2.14 X_U1.MID -1
X_U1.XU2.C10 X_U1.MID X_U1.XU2.8 530.5F
X_U1.XU2.R27 X_U1.XU2.8 X_U1.XU2.14 X_U1.XU2.R_NOISELESS 10K
X_U1.XU2.R26 X_U1.XU2.15 X_U1.XU2.14 X_U1.XU2.R_NOISELESS 2K
X_U1.XU2.R25 X_U1.XU2.15 X_U1.MID X_U1.XU2.R_NOISELESS 1
X_U1.XU2.GVCCS8 X_U1.XU2.15 X_U1.MID X_U1.XU2.16 X_U1.MID -1
X_U1.XU2.C9 X_U1.MID X_U1.XU2.9 530.5F
X_U1.XU2.R24 X_U1.XU2.9 X_U1.XU2.16 X_U1.XU2.R_NOISELESS 10K
X_U1.XU2.R23 X_U1.XU2.17 X_U1.XU2.16 X_U1.XU2.R_NOISELESS 2K
X_U1.XU2.R22 X_U1.XU2.17 X_U1.MID X_U1.XU2.R_NOISELESS 1
X_U1.XU2.GVCCS7 X_U1.XU2.17 X_U1.MID X_U1.XU2.18 X_U1.MID -1.063
X_U1.XU2.C8 X_U1.XU2.19 X_U1.XU2.18 1.989P
X_U1.XU2.R21 X_U1.XU2.18 X_U1.MID X_U1.XU2.R_NOISELESS 160K
X_U1.XU2.R20 X_U1.XU2.19 X_U1.XU2.18 X_U1.XU2.R_NOISELESS 10K
X_U1.XU2.R19 X_U1.XU2.19 X_U1.MID X_U1.XU2.R_NOISELESS 1
X_U1.XU2.GVCCS6 X_U1.XU2.19 X_U1.MID X_U1.XU2.20 X_U1.MID -1.063
X_U1.XU2.C6 X_U1.XU2.21 X_U1.XU2.20 1.989P
X_U1.XU2.R18 X_U1.XU2.20 X_U1.MID X_U1.XU2.R_NOISELESS 160K
X_U1.XU2.R17 X_U1.XU2.21 X_U1.XU2.20 X_U1.XU2.R_NOISELESS 10K
X_U1.XU2.R14 X_U1.XU2.21 X_U1.MID X_U1.XU2.R_NOISELESS 1
X_U1.XU2.GVCCS5 X_U1.XU2.21 X_U1.MID X_U1.XU2.22 X_U1.MID -1
X_U1.XU2.C5 X_U1.MID X_U1.XU2.10 77.64P
X_U1.XU2.R13 X_U1.XU2.10 X_U1.XU2.22 X_U1.XU2.R_NOISELESS 10K
X_U1.XU2.R12 X_U1.XU2.23 X_U1.XU2.22 X_U1.XU2.R_NOISELESS 250
X_U1.XU2.R11 X_U1.XU2.23 X_U1.MID X_U1.XU2.R_NOISELESS 1
X_U1.XU2.GVCCS4 X_U1.XU2.23 X_U1.MID X_U1.XU2.24 X_U1.MID -1.872
X_U1.XU2.C4 X_U1.XU2.25 X_U1.XU2.24 639.2N
X_U1.XU2.R10 X_U1.XU2.24 X_U1.MID X_U1.XU2.R_NOISELESS 11.46K
X_U1.XU2.R9 X_U1.XU2.25 X_U1.XU2.24 X_U1.XU2.R_NOISELESS 10K
X_U1.XU2.R8 X_U1.XU2.25 X_U1.MID X_U1.XU2.R_NOISELESS 1
X_U1.XU2.GVCCS3 X_U1.XU2.25 X_U1.MID X_U1.XU2.26 X_U1.MID -1.872
X_U1.XU2.C3 X_U1.XU2.27 X_U1.XU2.26 639.2N
X_U1.XU2.R7 X_U1.XU2.26 X_U1.MID X_U1.XU2.R_NOISELESS 11.46K
X_U1.XU2.R6 X_U1.XU2.27 X_U1.XU2.26 X_U1.XU2.R_NOISELESS 10K
X_U1.XU2.RDUMMY X_U1.MID X_U1.XU2.12 X_U1.XU2.R_NOISELESS 570.5
X_U1.XU2.RX X_U1.XU2.12 X_U1.XU2.13 X_U1.XU2.R_NOISELESS 5.705K
X_U1.XU2.R5 X_U1.XU2.27 X_U1.MID X_U1.XU2.R_NOISELESS 1
X_U1.XU2.G_AOL_ZO X_U1.XU2.27 X_U1.MID X_U1.XU2.28 X_U1.XU2.12 -88.96
X_U1.XU2.C2 X_U1.MID X_U1.XU2.28 1.137F
X_U1.XU2.R4 X_U1.MID X_U1.XU2.28 X_U1.XU2.R_NOISELESS 1MEG
X_U1.XU2.GVCCS2 X_U1.XU2.28 X_U1.MID X_U1.XU2.29 X_U1.MID -1U
X_U1.XU2.R3 X_U1.MID X_U1.XU2.29 X_U1.XU2.R_NOISELESS 1K
X_U1.XU2.GVCCS1 X_U1.XU2.29 X_U1.MID X_U1.XU2.30 X_U1.MID -1M
X_U1.XU2.C1 X_U1.MID X_U1.XU2.30 6.081N
X_U1.XU2.R2 X_U1.MID X_U1.XU2.30 X_U1.XU2.R_NOISELESS 1MEG
X_U1.XU2.XVCCS_LIM_2 X_U1.XU2.31 X_U1.MID X_U1.MID X_U1.XU2.30
+ VCCS_LIM_INAMP1_2_0
X_U1.XU2.R1 X_U1.MID X_U1.XU2.31 X_U1.XU2.R_NOISELESS 1MEG
X_U1.XU2.XVCCS_LIM_1 X_U1.23 X_U1.25 X_U1.MID X_U1.XU2.31
+ VCCS_LIM_INAMP1_1_0


**** EXPANSION OF SUBCIRCUIT X_U1.XIn13 ****
.PARAM FLWF 0.1
.PARAM NLFF 11.3E3
.PARAM NVRF 1.315E3
.PARAM GLFF {PWR(FLWF,0.25)*NLFF/1164}
.PARAM RNVF {1.184*PWR(NVRF,2)}
.MODEL X_U1.XIn13.DVNF D KF {PWR(FLWF,0.5)/1E11} IS 1.0E-16
X_U1.XIn13.I1 0 X_U1.XIn13.7 10E-3
X_U1.XIn13.I2 0 X_U1.XIn13.8 10E-3
X_U1.XIn13.D1 X_U1.XIn13.7 0 X_U1.XIn13.DVNF
X_U1.XIn13.D2 X_U1.XIn13.8 0 X_U1.XIn13.DVNF
X_U1.XIn13.E1 X_U1.XIn13.3 X_U1.XIn13.6 X_U1.XIn13.7 X_U1.XIn13.8 {GLFF}
X_U1.XIn13.R1 X_U1.XIn13.3 0 1E9
X_U1.XIn13.R2 X_U1.XIn13.3 0 1E9
X_U1.XIn13.R3 X_U1.XIn13.3 X_U1.XIn13.6 1E9
X_U1.XIn13.E2 X_U1.XIn13.6 X_U1.XIn13.4 X_U1.XIn13.5 0 10
X_U1.XIn13.R4 X_U1.XIn13.5 0 {RNVF}
X_U1.XIn13.R5 X_U1.XIn13.5 0 {RNVF}
X_U1.XIn13.R6 X_U1.XIn13.3 X_U1.XIn13.4 1E9
X_U1.XIn13.R7 X_U1.XIn13.4 0 1E9
X_U1.XIn13.G1 X_U1.MID X_U1.26 X_U1.XIn13.3 X_U1.XIn13.4 1E-6


**** EXPANSION OF SUBCIRCUIT X_U1.XIn12 ****
.PARAM FLWF 0.1
.PARAM NLFF 11.3E3
.PARAM NVRF 1.315E3
.PARAM GLFF {PWR(FLWF,0.25)*NLFF/1164}
.PARAM RNVF {1.184*PWR(NVRF,2)}
.MODEL X_U1.XIn12.DVNF D KF {PWR(FLWF,0.5)/1E11} IS 1.0E-16
X_U1.XIn12.I1 0 X_U1.XIn12.7 10E-3
X_U1.XIn12.I2 0 X_U1.XIn12.8 10E-3
X_U1.XIn12.D1 X_U1.XIn12.7 0 X_U1.XIn12.DVNF
X_U1.XIn12.D2 X_U1.XIn12.8 0 X_U1.XIn12.DVNF
X_U1.XIn12.E1 X_U1.XIn12.3 X_U1.XIn12.6 X_U1.XIn12.7 X_U1.XIn12.8 {GLFF}
X_U1.XIn12.R1 X_U1.XIn12.3 0 1E9
X_U1.XIn12.R2 X_U1.XIn12.3 0 1E9
X_U1.XIn12.R3 X_U1.XIn12.3 X_U1.XIn12.6 1E9
X_U1.XIn12.E2 X_U1.XIn12.6 X_U1.XIn12.4 X_U1.XIn12.5 0 10
X_U1.XIn12.R4 X_U1.XIn12.5 0 {RNVF}
X_U1.XIn12.R5 X_U1.XIn12.5 0 {RNVF}
X_U1.XIn12.R6 X_U1.XIn12.3 X_U1.XIn12.4 1E9
X_U1.XIn12.R7 X_U1.XIn12.4 0 1E9
X_U1.XIn12.G1 X_U1.22 X_U1.MID X_U1.XIn12.3 X_U1.XIn12.4 1E-6


**** EXPANSION OF SUBCIRCUIT X_U1.XVCM_CLAMPn ****
.PARAM GAIN 1
X_U1.XVCM_CLAMPn.G1 X_U1.MID X_U1.29 VALUE {LIMIT(GAIN*V(0#,1#),V(5#,1#),
+  V(4#,1#))}


**** EXPANSION OF SUBCIRCUIT X_U1.XVCM_CLAMPp ****
.PARAM GAIN 1
X_U1.XVCM_CLAMPp.G1 X_U1.MID X_U1.32 VALUE {LIMIT(GAIN*V(0#,1#),V(5#,1#),
+  V(4#,1#))}

**** FROM LIBRARY ../../../ina848.lib ****
.SUBCKT VNSE_OUTAMP_0  1 2
* INPUT VARIABLES
* SET UP 1/F NOISE
* FLW = 1/F FREQUENCY IN HZ
.PARAM FLW=0.1
* NLF = VOLTAGE NOISE DENSITY AT 1/F FREQUENCY IN NV/RT(HZ)
.PARAM NLF=877
* SET UP BROADBAND NOISE
* NVR = BROADBAND VOLTAGE NOISE DENSITY IN NV/RT(HZ)
.PARAM NVR=81.5
* CALCULATED VALUES
.PARAM GLF={PWR(FLW,0.25)*NLF/1164}
.PARAM RNV={1.184*PWR(NVR,2)}
.MODEL DVN D KF={PWR(FLW,0.5)/1E11} IS=1.0E-16
* CIRCUIT CONNECTIONS
I1 0 7 10E-3
I2 0 8 10E-3
D1 7 0 DVN
D2 8 0 DVN
E1 3 6 7 8 {GLF}
R1 3 0 1E9
R2 3 0 1E9
R3 3 6 1E9
E2 6 4 5 0 10
R4 5 0 {RNV}
R5 5 0 {RNV}
R6 3 4 1E9
R7 4 0 1E9
E3 1 2 3 4 1
.ENDS

.SUBCKT VCCS_LIM_CLAW-_OUTAMP_0  VC+ VC- IOUT+ IOUT-
G1 IOUT+ IOUT- TABLE {(V(VC+,VC-))} =
+(0, 5E-5)
+(5, 9.81E-5)
+(10, 1.64E-4)
+(14, 2.21E-4)
+(18, 2.93E-4)
+(20, 3.58E-4)
+(21, 4.41E-4)
+(22, 6.67E-4)
+(23.79, 1.68E-3)
+(24, 1.90E-3)
.ENDS

.SUBCKT VCCS_LIM_CLAW+_OUTAMP_0  VC+ VC- IOUT+ IOUT-
G1 IOUT+ IOUT- TABLE {(V(VC+,VC-))} =
+(0, 4.59E-5)
+(5, 1.45E-4)
+(10, 2.31E-4)
+(14, 3.18E-4)
+(18, 4.32E-4)
+(22, 5.57E-4)
+(24, 6.87E-4)
+(25, 7.87E-4)
+(26.99, 1.13E-3)
+(28.93, 1.64E-3)
+(30, 1.99E-3)
.ENDS

.SUBCKT CLAMP_AMP_LO_OUTAMP_0  VC+ VC- VIN COM VO+ VO-
*  PINS     CLAMP V+  CLAMP V-  VIN  COM   VOUT+  VOUT-
.PARAM G=1
* OUTPUT G(COM,0) WHEN CONDITION NOT MET
GVO+ COM VO+ VALUE = {IF(V(VIN,COM)>V(VC+,COM),((V(VIN,COM)-V(VC+,COM))*G),0)}
GVO- COM VO- VALUE = {IF(V(VIN,COM)<V(VC-,COM),((V(VC-,COM)-V(VIN,COM))*G),0)}
.ENDS

.SUBCKT VCCS_LIM_3_OUTAMP_0  VC+ VC- IOUT+ IOUT-
.PARAM GAIN = 1
.PARAM IPOS = 0.32
.PARAM INEG = -0.27
G1 IOUT+ IOUT- VALUE={LIMIT(GAIN*V(VC+,VC-),INEG,IPOS)}
.ENDS

.SUBCKT CLAMP_AMP_HI_OUTAMP_0  VC+ VC- VIN COM VO+ VO-
*  PINS     CLAMP V+  CLAMP V-  VIN  COM   VOUT+  VOUT-
.PARAM G=10
* OUTPUT G(COM,0) WHEN CONDITION NOT MET
GVO+ COM VO+ VALUE = {IF(V(VIN,COM)>V(VC+,COM),((V(VIN,COM)-V(VC+,COM))*G),0)}
GVO- COM VO- VALUE = {IF(V(VIN,COM)<V(VC-,COM),((V(VC-,COM)-V(VIN,COM))*G),0)}
.ENDS

.SUBCKT VCCS_LIM_GR_OUTAMP_0  VC+ VC- IOUT+ IOUT-
.PARAM GAIN = 1
.PARAM IPOS = 47.5
.PARAM INEG = -47.5
G1 IOUT+ IOUT- VALUE={LIMIT(GAIN*V(VC+,VC-),INEG,IPOS)}
.ENDS

.SUBCKT VCCS_LIM_4_OUTAMP_0  VC+ VC- IOUT+ IOUT-
.PARAM GAIN = 1
.PARAM IPOS = 0.64
.PARAM INEG = -0.54
G1 IOUT+ IOUT- VALUE={LIMIT(GAIN*V(VC+,VC-),INEG,IPOS)}
.ENDS

.SUBCKT OL_SENSE_OUTAMP_0  COM SW+ OLN  OLP
* PINS          COM SW+ OLN OLP
GSW+ COM SW+ VALUE = {IF((V(OLN,COM)>10E-3 | V(OLP,COM)>10E-3),1,0)}
.ENDS

.SUBCKT VCCS_LIMIT_IQ_OUTAMP_0  VC+ VC- IOUT+ IOUT-
.PARAM GAIN = 1E-3
G1 IOUT- IOUT+ VALUE={IF( (V(VC+,VC-)<=0),0,GAIN*V(VC+,VC-) )}
.ENDS

.SUBCKT VCCS_EXT_LIM_OUTAMP_0  VIN+ VIN- IOUT- IOUT+ VP+ VP-
.PARAM GAIN = 1
G1 IOUT+ IOUT- VALUE={LIMIT(GAIN*V(VIN+,VIN-),V(VP-,VIN-), V(VP+,VIN-))}
.ENDS

.SUBCKT VCCS_LIM_ZO_OUTAMP_0  VC+ VC- IOUT+ IOUT-
.PARAM GAIN = 5
.PARAM IPOS = 24.5E3
.PARAM INEG = -19.5E3
G1 IOUT+ IOUT- VALUE={LIMIT(GAIN*V(VC+,VC-),INEG,IPOS)}
.ENDS

.SUBCKT VCCS_LIM_2_OUTAMP_0  VC+ VC- IOUT+ IOUT-
.PARAM GAIN = 1E-1
.PARAM IPOS = 23.42
.PARAM INEG = -23.38
G1 IOUT+ IOUT- VALUE={LIMIT(GAIN*V(VC+,VC-),INEG,IPOS)}
.ENDS

.SUBCKT VCCS_LIM_1_OUTAMP_0  VC+ VC- IOUT+ IOUT-
.PARAM GAIN = 9E-4
.PARAM IPOS = .5
.PARAM INEG = -.5
G1 IOUT+ IOUT- VALUE={LIMIT(GAIN*V(VC+,VC-),INEG,IPOS)}
.ENDS

.SUBCKT VCCS_LIMIT_INAMP2_IQ_0  VC+ VC- IOUT+ IOUT-
.PARAM GAIN = 1E-3
G1 IOUT- IOUT+ VALUE={IF( (V(VC+,VC-)<=0),0,GAIN*V(VC+,VC-) )}
.ENDS

.SUBCKT VCCS_LIM_INAMP2_2_0  VC+ VC- IOUT+ IOUT-
.PARAM GAIN = 1.128E-3
.PARAM IPOS = 100
.PARAM INEG = -100
G1 IOUT+ IOUT- VALUE={LIMIT(GAIN*V(VC+,VC-),INEG,IPOS)}
.ENDS

.SUBCKT VCCS_LIM_INAMP2_1_0  VC+ VC- IOUT+ IOUT-
.PARAM GAIN = 3.17E-4
.PARAM IPOS = .5
.PARAM INEG = -.5
G1 IOUT+ IOUT- VALUE={LIMIT(GAIN*V(VC+,VC-),INEG,IPOS)}
.ENDS

.SUBCKT VCCS_LIMIT_INAMP1_IQ_0  VC+ VC- IOUT+ IOUT-
.PARAM GAIN = 1E-3
G1 IOUT- IOUT+ VALUE={IF( (V(VC+,VC-)<=0),0,GAIN*V(VC+,VC-) )}
.ENDS

.SUBCKT VCCS_LIM_INAMP1_2_0  VC+ VC- IOUT+ IOUT-
.PARAM GAIN = 1.128E-3
.PARAM IPOS = 100
.PARAM INEG = -100
G1 IOUT+ IOUT- VALUE={LIMIT(GAIN*V(VC+,VC-),INEG,IPOS)}
.ENDS

.SUBCKT VCCS_LIM_INAMP1_1_0  VC+ VC- IOUT+ IOUT-
.PARAM GAIN = 3.17E-4
.PARAM IPOS = .5
.PARAM INEG = -.5
G1 IOUT+ IOUT- VALUE={LIMIT(GAIN*V(VC+,VC-),INEG,IPOS)}
.ENDS


**** EXPANSION OF SUBCIRCUIT X_U1.XU1.XVN12 ****
.PARAM FLW 0.1
.PARAM NLF 877
.PARAM NVR 81.5
.PARAM GLF {PWR(FLW,0.25)*NLF/1164}
.PARAM RNV {1.184*PWR(NVR,2)}
.MODEL X_U1.XU1.XVN12.DVN D KF {PWR(FLW,0.5)/1E11} IS 1.0E-16
X_U1.XU1.XVN12.I1 0 X_U1.XU1.XVN12.7 10E-3
X_U1.XU1.XVN12.I2 0 X_U1.XU1.XVN12.8 10E-3
X_U1.XU1.XVN12.D1 X_U1.XU1.XVN12.7 0 X_U1.XU1.XVN12.DVN
X_U1.XU1.XVN12.D2 X_U1.XU1.XVN12.8 0 X_U1.XU1.XVN12.DVN
X_U1.XU1.XVN12.E1 X_U1.XU1.XVN12.3 X_U1.XU1.XVN12.6 X_U1.XU1.XVN12.7
+ X_U1.XU1.XVN12.8 {GLF}
X_U1.XU1.XVN12.R1 X_U1.XU1.XVN12.3 0 1E9
X_U1.XU1.XVN12.R2 X_U1.XU1.XVN12.3 0 1E9
X_U1.XU1.XVN12.R3 X_U1.XU1.XVN12.3 X_U1.XU1.XVN12.6 1E9
X_U1.XU1.XVN12.E2 X_U1.XU1.XVN12.6 X_U1.XU1.XVN12.4 X_U1.XU1.XVN12.5
+ 0 10
X_U1.XU1.XVN12.R4 X_U1.XU1.XVN12.5 0 {RNV}
X_U1.XU1.XVN12.R5 X_U1.XU1.XVN12.5 0 {RNV}
X_U1.XU1.XVN12.R6 X_U1.XU1.XVN12.3 X_U1.XU1.XVN12.4 1E9
X_U1.XU1.XVN12.R7 X_U1.XU1.XVN12.4 0 1E9
X_U1.XU1.XVN12.E3 X_U1.XU1.19 X_U1.XU1.20 X_U1.XU1.XVN12.3
+ X_U1.XU1.XVN12.4 1


**** EXPANSION OF SUBCIRCUIT X_U1.XU1.XVN11 ****
.PARAM FLW 0.1
.PARAM NLF 877
.PARAM NVR 81.5
.PARAM GLF {PWR(FLW,0.25)*NLF/1164}
.PARAM RNV {1.184*PWR(NVR,2)}
.MODEL X_U1.XU1.XVN11.DVN D KF {PWR(FLW,0.5)/1E11} IS 1.0E-16
X_U1.XU1.XVN11.I1 0 X_U1.XU1.XVN11.7 10E-3
X_U1.XU1.XVN11.I2 0 X_U1.XU1.XVN11.8 10E-3
X_U1.XU1.XVN11.D1 X_U1.XU1.XVN11.7 0 X_U1.XU1.XVN11.DVN
X_U1.XU1.XVN11.D2 X_U1.XU1.XVN11.8 0 X_U1.XU1.XVN11.DVN
X_U1.XU1.XVN11.E1 X_U1.XU1.XVN11.3 X_U1.XU1.XVN11.6 X_U1.XU1.XVN11.7
+ X_U1.XU1.XVN11.8 {GLF}
X_U1.XU1.XVN11.R1 X_U1.XU1.XVN11.3 0 1E9
X_U1.XU1.XVN11.R2 X_U1.XU1.XVN11.3 0 1E9
X_U1.XU1.XVN11.R3 X_U1.XU1.XVN11.3 X_U1.XU1.XVN11.6 1E9
X_U1.XU1.XVN11.E2 X_U1.XU1.XVN11.6 X_U1.XU1.XVN11.4 X_U1.XU1.XVN11.5
+ 0 10
X_U1.XU1.XVN11.R4 X_U1.XU1.XVN11.5 0 {RNV}
X_U1.XU1.XVN11.R5 X_U1.XU1.XVN11.5 0 {RNV}
X_U1.XU1.XVN11.R6 X_U1.XU1.XVN11.3 X_U1.XU1.XVN11.4 1E9
X_U1.XU1.XVN11.R7 X_U1.XU1.XVN11.4 0 1E9
X_U1.XU1.XVN11.E3 X_U1.XU1.21 X_U1.XU1.22 X_U1.XU1.XVN11.3
+ X_U1.XU1.XVN11.4 1


**** EXPANSION OF SUBCIRCUIT X_U1.XU1.XCLAWN ****
X_U1.XU1.XCLAWN.G1 X_U1.VEE_B X_U1.XU1.26 TABLE {(V(0#,1#))} 0 5E-5 5
+ 9.81E-5 10 1.64E-4 14 2.21E-4 18 2.93E-4 20 3.58E-4 21 4.41E-4 22
+ 6.67E-4 23.79 1.68E-3 24 1.90E-3


**** EXPANSION OF SUBCIRCUIT X_U1.XU1.XCLAWP ****
X_U1.XU1.XCLAWP.G1 X_U1.XU1.27 X_U1.VCC_B TABLE {(V(0#,1#))} 0
+ 4.59E-5 5 1.45E-4 10 2.31E-4 14 3.18E-4 18 4.32E-4 22 5.57E-4 24
+ 6.87E-4 25 7.87E-4 26.99 1.13E-3 28.93 1.64E-3 30 1.99E-3


**** EXPANSION OF SUBCIRCUIT X_U1.XU1.XCLAW_AMP ****
.PARAM G 1
X_U1.XU1.XCLAW_AMP.GVO+ X_U1.MID X_U1.XU1.30 VALUE {IF(V(2#,3#)>V(0#,3#),
+ ((V(2#,3#)-V(0#,3#))*G),0)}
X_U1.XU1.XCLAW_AMP.GVO- X_U1.MID X_U1.XU1.31 VALUE {IF(V(2#,3#)<V(1#,3#),
+ ((V(1#,3#)-V(2#,3#))*G),0)}


**** EXPANSION OF SUBCIRCUIT X_U1.XU1.XCLAW_SRC ****
.PARAM GAIN 1
.PARAM IPOS 0.32
.PARAM INEG -0.27
X_U1.XU1.XCLAW_SRC.G1 X_U1.XU1.CLAW_CLAMP_OP X_U1.MID VALUE {LIMIT(GAIN*V(
+ 0#,1#),INEG,IPOS)}


**** EXPANSION OF SUBCIRCUIT X_U1.XU1.XGR_AMP ****
.PARAM G 10
X_U1.XU1.XGR_AMP.GVO+ X_U1.MID X_U1.XU1.37 VALUE {IF(V(2#,3#)>V(0#,3#),
+ ((V(2#,3#)-V(0#,3#))*G),0)}
X_U1.XU1.XGR_AMP.GVO- X_U1.MID X_U1.XU1.38 VALUE {IF(V(2#,3#)<V(1#,3#),
+ ((V(1#,3#)-V(2#,3#))*G),0)}


**** EXPANSION OF SUBCIRCUIT X_U1.XU1.XGR_SRC ****
.PARAM GAIN 1
.PARAM IPOS 47.5
.PARAM INEG -47.5
X_U1.XU1.XGR_SRC.G1 X_U1.XU1.CLAMP_OP X_U1.MID VALUE {LIMIT(GAIN*V(0#,1#),
+ INEG,IPOS)}


**** EXPANSION OF SUBCIRCUIT X_U1.XU1.XCL_AMP ****
.PARAM G 1
X_U1.XU1.XCL_AMP.GVO+ X_U1.MID X_U1.XU1.43 VALUE {IF(V(2#,3#)>V(0#,3#),
+ ((V(2#,3#)-V(0#,3#))*G),0)}
X_U1.XU1.XCL_AMP.GVO- X_U1.MID X_U1.XU1.44 VALUE {IF(V(2#,3#)<V(1#,3#),
+ ((V(1#,3#)-V(2#,3#))*G),0)}


**** EXPANSION OF SUBCIRCUIT X_U1.XU1.XCL_SRC ****
.PARAM GAIN 1
.PARAM IPOS 0.64
.PARAM INEG -0.54
X_U1.XU1.XCL_SRC.G1 X_U1.XU1.CL_CLAMP_OP X_U1.MID VALUE {LIMIT(GAIN*V(0#,
+ 1#),INEG,IPOS)}


**** EXPANSION OF SUBCIRCUIT X_U1.XU1.XOL_SENSE ****
X_U1.XU1.XOL_SENSE.GSW+ X_U1.MID X_U1.XU1.57 VALUE {IF((V(2#,0#)>10E-3 
+ | V(3#,0#)>10E-3),1,0)}


**** EXPANSION OF SUBCIRCUIT X_U1.XU1.XIQP ****
.PARAM GAIN 1E-3
X_U1.XU1.XIQP.G1 N29049 X_U1.MID VALUE {IF( (V(0#,1#)<=0),0,GAIN*V(0#,1#) 
+ )}


**** EXPANSION OF SUBCIRCUIT X_U1.XU1.XIQN ****
.PARAM GAIN 1E-3
X_U1.XU1.XIQN.G1 X_U1.MID N29106 VALUE {IF( (V(0#,1#)<=0),0,GAIN*V(0#,1#) 
+ )}


**** EXPANSION OF SUBCIRCUIT X_U1.XU1.XVCM_CLAMP_OUTAMP ****
.PARAM GAIN 1
X_U1.XU1.XVCM_CLAMP_OUTAMP.G1 X_U1.MID X_U1.XU1.85 VALUE {LIMIT(GAIN*V(
+ 0#,1#),V(5#,1#), V(4#,1#))}


**** EXPANSION OF SUBCIRCUIT X_U1.XU1.XVCCS_LIM_ZO ****
.PARAM GAIN 5
.PARAM IPOS 24.5E3
.PARAM INEG -19.5E3
X_U1.XU1.XVCCS_LIM_ZO.G1 X_U1.MID X_U1.XU1.91 VALUE {LIMIT(GAIN*V(0#,1#),
+ INEG,IPOS)}


**** EXPANSION OF SUBCIRCUIT X_U1.XU1.XVCCS_LIM_2 ****
.PARAM GAIN 1E-1
.PARAM IPOS 23.42
.PARAM INEG -23.38
X_U1.XU1.XVCCS_LIM_2.G1 X_U1.MID X_U1.XU1.CLAMP_OP VALUE {LIMIT(GAIN*V(
+ 0#,1#),INEG,IPOS)}


**** EXPANSION OF SUBCIRCUIT X_U1.XU1.XVCCS_LIM_1 ****
.PARAM GAIN 9E-4
.PARAM IPOS .5
.PARAM INEG -.5
X_U1.XU1.XVCCS_LIM_1.G1 X_U1.MID X_U1.XU1.95 VALUE {LIMIT(GAIN*V(0#,1#),
+ INEG,IPOS)}


**** EXPANSION OF SUBCIRCUIT X_U1.XU3.XIQP1 ****
.PARAM GAIN 1E-3
X_U1.XU3.XIQP1.G1 N29049 X_U1.MID VALUE {IF( (V(0#,1#)<=0),0,GAIN*V(0#,
+ 1#) )}


**** EXPANSION OF SUBCIRCUIT X_U1.XU3.XIQN1 ****
.PARAM GAIN 1E-3
X_U1.XU3.XIQN1.G1 X_U1.MID N29106 VALUE {IF( (V(0#,1#)<=0),0,GAIN*V(0#,
+ 1#) )}


**** EXPANSION OF SUBCIRCUIT X_U1.XU3.XVCCS_LIM_2 ****
.PARAM GAIN 1.128E-3
.PARAM IPOS 100
.PARAM INEG -100
X_U1.XU3.XVCCS_LIM_2.G1 X_U1.MID X_U1.XU3.30 VALUE {LIMIT(GAIN*V(0#,1#),
+ INEG,IPOS)}


**** EXPANSION OF SUBCIRCUIT X_U1.XU3.XVCCS_LIM_1 ****
.PARAM GAIN 3.17E-4
.PARAM IPOS .5
.PARAM INEG -.5
X_U1.XU3.XVCCS_LIM_1.G1 X_U1.MID X_U1.XU3.31 VALUE {LIMIT(GAIN*V(0#,1#),
+ INEG,IPOS)}


**** EXPANSION OF SUBCIRCUIT X_U1.XU2.XIQP1 ****
.PARAM GAIN 1E-3
X_U1.XU2.XIQP1.G1 N29049 X_U1.MID VALUE {IF( (V(0#,1#)<=0),0,GAIN*V(0#,
+ 1#) )}


**** EXPANSION OF SUBCIRCUIT X_U1.XU2.XIQN1 ****
.PARAM GAIN 1E-3
X_U1.XU2.XIQN1.G1 X_U1.MID N29106 VALUE {IF( (V(0#,1#)<=0),0,GAIN*V(0#,
+ 1#) )}


**** EXPANSION OF SUBCIRCUIT X_U1.XU2.XVCCS_LIM_2 ****
.PARAM GAIN 1.128E-3
.PARAM IPOS 100
.PARAM INEG -100
X_U1.XU2.XVCCS_LIM_2.G1 X_U1.MID X_U1.XU2.30 VALUE {LIMIT(GAIN*V(0#,1#),
+ INEG,IPOS)}


**** EXPANSION OF SUBCIRCUIT X_U1.XU2.XVCCS_LIM_1 ****
.PARAM GAIN 3.17E-4
.PARAM IPOS .5
.PARAM INEG -.5
X_U1.XU2.XVCCS_LIM_1.G1 X_U1.MID X_U1.XU2.31 VALUE {LIMIT(GAIN*V(0#,1#),
+ INEG,IPOS)}

**** 09/29/20 19:14:08 ******* PSpice 17.4.0 (Nov 2018) ******* ID# 0 ********

 ** Profile: "INA848_Test_Circuit-dc_op"  [ C:\Users\a0870489\Documents\DeviceModeling\Development\INA848_SPEC\Release\ina848_test_ci


 ****     Diode MODEL PARAMETERS


******************************************************************************




               X_U1.XIn13.DVNF X_U1.XIn12.DVNF 
          IS  100.000000E-18  100.000000E-18 
          KF    3.162278E-12    3.162278E-12 


               X_U1.XU1.XVN12.DVN 
          IS  100.000000E-18 
          KF    3.162278E-12 


               X_U1.XU1.XVN11.DVN 
          IS  100.000000E-18 
          KF    3.162278E-12 


**** 09/29/20 19:14:08 ******* PSpice 17.4.0 (Nov 2018) ******* ID# 0 ********

 ** Profile: "INA848_Test_Circuit-dc_op"  [ C:\Users\a0870489\Documents\DeviceModeling\Development\INA848_SPEC\Release\ina848_test_ci


 ****     Resistor MODEL PARAMETERS


******************************************************************************




               X_U1.R_NOISELESS 
  T_Measured   27            
   T_Current -273.15         
           R    1            


               X_U1.XU1.R_NOISELESS 
  T_Measured   27            
   T_Current -273.15         
           R    1            


               X_U1.XU3.R_NOISELESS 
  T_Measured   27            
   T_Current -273.15         
           R    1            


               X_U1.XU2.R_NOISELESS 
  T_Measured   27            
   T_Current -273.15         
           R    1            


**** 09/29/20 19:14:08 ******* PSpice 17.4.0 (Nov 2018) ******* ID# 0 ********

 ** Profile: "INA848_Test_Circuit-dc_op"  [ C:\Users\a0870489\Documents\DeviceModeling\Development\INA848_SPEC\Release\ina848_test_ci


 ****     Voltage Controlled Switch MODEL PARAMETERS


******************************************************************************




               X_U1.S_VSWITCH_1 
         RON   50            
        ROFF    1.000000E+12 
         VON     .5          
        VOFF     .1          


               X_U1.S_VSWITCH_2 
         RON   50            
        ROFF    1.000000E+12 
         VON     .5          
        VOFF     .1          


               X_U1.S_VSWITCH_3 
         RON   50            
        ROFF    1.000000E+12 
         VON     .5          
        VOFF     .1          


               X_U1.S_VSWITCH_4 
         RON   50            
        ROFF    1.000000E+12 
         VON     .5          
        VOFF     .1          


               X_U1.S_VSWITCH_5 
         RON   50            
        ROFF    1.000000E+12 
         VON     .5          
        VOFF     .1          


               X_U1.S_VSWITCH_6 
         RON   50            
        ROFF    1.000000E+12 
         VON     .5          
        VOFF     .1          


               X_U1.S_VSWITCH_7 
         RON   50            
        ROFF    1.000000E+12 
         VON     .5          
        VOFF     .1          


               X_U1.S_VSWITCH_8 
         RON   50            
        ROFF    1.000000E+12 
         VON     .5          
        VOFF     .1          


               X_U1.S_VSWITCH_9 
         RON   50            
        ROFF    1.000000E+12 
         VON     .5          
        VOFF     .1          


               X_U1.S_VSWITCH_10 
         RON   50            
        ROFF    1.000000E+12 
         VON     .5          
        VOFF     .1          


               X_U1.S_VSWITCH_11 
         RON   50            
        ROFF    1.000000E+12 
         VON     .5          
        VOFF     .1          


               X_U1.S_VSWITCH_12 
         RON   50            
        ROFF    1.000000E+12 
         VON     .5          
        VOFF     .1          


               X_U1.XU1.S_VSWITCH_1 
         RON    1.000000E-03 
        ROFF    1.000000E+09 
         VON     .9          
        VOFF     .8          


               X_U1.XU1.S_VSWITCH_2 
         RON     .01         
        ROFF    1.000000E+09 
         VON     .01         
        VOFF    0            


               X_U1.XU1.S_VSWITCH_3 
         RON     .01         
        ROFF    1.000000E+09 
         VON     .01         
        VOFF    0            


**** 09/29/20 19:14:08 ******* PSpice 17.4.0 (Nov 2018) ******* ID# 0 ********

 ** Profile: "INA848_Test_Circuit-dc_op"  [ C:\Users\a0870489\Documents\DeviceModeling\Development\INA848_SPEC\Release\ina848_test_ci


 ****     SMALL SIGNAL BIAS SOLUTION       TEMPERATURE =   27.000 DEG C


******************************************************************************



 NODE   VOLTAGE     NODE   VOLTAGE     NODE   VOLTAGE     NODE   VOLTAGE


(  IN+)    0.0000  (  IN-)    0.0000  (  OUT) 10.01E-06  (N28695)    0.0000     

(N28767)    -.0023 (N28823)    -.0022 (N29049)   15.0000 (N29106)  -15.0000     

(X_U1.18)    -.0021                   (X_U1.19)    -.0021                       

(X_U1.20) 10.01E-06                   (X_U1.21) 466.7E-09                       

(X_U1.22)-230.0E-12                   (X_U1.23)   14.0000                       

(X_U1.24)   14.0000                   (X_U1.25)   14.0000                       

(X_U1.26)-250.0E-12                   (X_U1.27) 466.7E-09                       

(X_U1.28)-250.0E-12                   (X_U1.29) 466.7E-09                       

(X_U1.30)  -17.5000                   (X_U1.31)   12.5000                       

(X_U1.32)-250.0E-12                   (X_U1.33)  -17.5000                       

(X_U1.34)   12.5000                   (X_U1.35) 6.935E-09                       

(X_U1.36)  -15.0000                   (X_U1.37)   15.0000                       

(X_U1.INn) 466.7E-09                  (X_U1.INp)-250.0E-12                      

(X_U1.MID) 6.935E-09                  (X_U1.RG+)    -.0023                      

(X_U1.RG-)    -.0023                  (X_U1.NODE1)    -.0023                    

(X_U1.NODE2)    -.0024                (X_U1.VCC_B)   15.0000                    

(X_U1.VEE_B)  -15.0000                (X_U1.XU2.8)    -.0249                    

(X_U1.XU2.9)    -.0249                (X_U1.XU3.8)    -.0261                    

(X_U1.XU3.9)    -.0261                (X_U1.XU1.19)    -.0021                   

(X_U1.XU1.20)    -.0021               (X_U1.XU1.21)    -.0021                   

(X_U1.XU1.22)    -.0021               (X_U1.XU1.23)     .0074                   

(X_U1.XU1.24) 4.141E-06               (X_U1.XU1.25) 93.21E-06                   

(X_U1.XU1.26)  -14.9500               (X_U1.XU1.27)   14.9540                   

(X_U1.XU1.28)   14.9540               (X_U1.XU1.29)  -14.9500                   

(X_U1.XU1.30) 6.935E-09               (X_U1.XU1.31) 6.935E-09                   

(X_U1.XU1.32) 6.935E-09               (X_U1.XU1.33) 6.935E-09                   

(X_U1.XU1.34)  156.0000               (X_U1.XU1.35) -132.0000                   

(X_U1.XU1.36) 93.21E-06               (X_U1.XU1.37) 6.935E-09                   

(X_U1.XU1.38) 6.935E-09               (X_U1.XU1.39) 6.935E-09                   

(X_U1.XU1.40) 6.935E-09               (X_U1.XU1.41)   30.0000                   

(X_U1.XU1.42)  -24.0000               (X_U1.XU1.43) 6.935E-09                   

(X_U1.XU1.44) 6.935E-09               (X_U1.XU1.45) 6.935E-09                   

(X_U1.XU1.46) 6.935E-09               (X_U1.XU1.47) 2.200E-09                   

(X_U1.XU1.48) 2.200E-09               (X_U1.XU1.49) 2.200E-09                   

(X_U1.XU1.50) 2.200E-09               (X_U1.XU1.51)    4.7301                   

(X_U1.XU1.52)    4.7301               (X_U1.XU1.53)   -4.7299                   

(X_U1.XU1.54)   -4.7299               (X_U1.XU1.55)    4.7301                   

(X_U1.XU1.56)   -4.7299               (X_U1.XU1.57) 6.935E-09                   

(X_U1.XU1.58)    -.0021               (X_U1.XU1.59) 42.75E-06                   

(X_U1.XU1.60)-43.09E-06               (X_U1.XU1.61)-43.09E-06                   

(X_U1.XU1.62)-43.09E-06               (X_U1.XU1.63)-43.09E-06                   

(X_U1.XU1.64)-43.09E-06               (X_U1.XU1.65)-43.09E-06                   

(X_U1.XU1.66)-43.09E-06               (X_U1.XU1.67)-21.54E-06                   

(X_U1.XU1.68)-43.09E-06               (X_U1.XU1.69)-43.09E-06                   

(X_U1.XU1.70)    -.2592               (X_U1.XU1.71) 42.75E-06                   

(X_U1.XU1.72) 42.75E-06               (X_U1.XU1.73) 42.75E-06                   

(X_U1.XU1.74) 42.75E-06               (X_U1.XU1.75) 42.75E-06                   

(X_U1.XU1.76) 42.75E-06               (X_U1.XU1.77) 21.38E-06                   

(X_U1.XU1.78) 42.75E-06               (X_U1.XU1.79) 42.75E-06                   

(X_U1.XU1.80)     .6442               (X_U1.XU1.81) 18.25E-06                   

(X_U1.XU1.82) 10.01E-06               (X_U1.XU1.83) 10.01E-06                   

(X_U1.XU1.84)    -.0021               (X_U1.XU1.85)    -.0021                   

(X_U1.XU1.86)  -13.0000               (X_U1.XU1.87)   13.0000                   

(X_U1.XU1.88) 93.21E-06               (X_U1.XU1.89) 93.21E-06                   

(X_U1.XU1.90)     .0015               (X_U1.XU1.91)     .0074                   

(X_U1.XU1.92)     .0074               (X_U1.XU1.93)     .0015                   

(X_U1.XU1.94)     .0074               (X_U1.XU1.95) 7.867E-09                   

(X_U1.XU1.96)    -.0021               (X_U1.XU1.97)    -.0021                   

(X_U1.XU2.10)    -.0249               (X_U1.XU2.11) 195.3E-09                   

(X_U1.XU2.12)    -.0023               (X_U1.XU2.13)    -.0249                   

(X_U1.XU2.14)    -.0249               (X_U1.XU2.15)    -.0249                   

(X_U1.XU2.16)    -.0249               (X_U1.XU2.17)    -.0249                   

(X_U1.XU2.18)    -.0235               (X_U1.XU2.19)    -.0249                   

(X_U1.XU2.20)    -.0234               (X_U1.XU2.21)    -.0249                   

(X_U1.XU2.22)    -.0249               (X_U1.XU2.23)    -.0249                   

(X_U1.XU2.24)    -.0133               (X_U1.XU2.25)    -.0249                   

(X_U1.XU2.26)    -.0133               (X_U1.XU2.27)    -.0249                   

(X_U1.XU2.28)    -.0025               (X_U1.XU2.29)    -.0025                   

(X_U1.XU2.30)    -.0025               (X_U1.XU2.31)-2.250E-06                   

(X_U1.XU3.10)    -.0261               (X_U1.XU3.11)-31.43E-06                   

(X_U1.XU3.12)    -.0024               (X_U1.XU3.13)    -.0261                   

(X_U1.XU3.14)    -.0261               (X_U1.XU3.15)    -.0261                   

(X_U1.XU3.16)    -.0261               (X_U1.XU3.17)    -.0261                   

(X_U1.XU3.18)    -.0246               (X_U1.XU3.19)    -.0261                   

(X_U1.XU3.20)    -.0246               (X_U1.XU3.21)    -.0261                   

(X_U1.XU3.22)    -.0261               (X_U1.XU3.23)    -.0261                   

(X_U1.XU3.24)    -.0139               (X_U1.XU3.25)    -.0261                   

(X_U1.XU3.26)    -.0140               (X_U1.XU3.27)    -.0261                   

(X_U1.XU3.28)    -.0027               (X_U1.XU3.29)    -.0027                   

(X_U1.XU3.30)    -.0027               (X_U1.XU3.31)-2.345E-06                   

(X_U1.XIn12.3)    0.0000              (X_U1.XIn12.4)    0.0000                  

(X_U1.XIn12.5)    0.0000              (X_U1.XIn12.6)    0.0000                  

(X_U1.XIn12.7)     .8338              (X_U1.XIn12.8)     .8338                  

(X_U1.XIn13.3)    0.0000              (X_U1.XIn13.4)    0.0000                  

(X_U1.XIn13.5)    0.0000              (X_U1.XIn13.6)    0.0000                  

(X_U1.XIn13.7)     .8338              (X_U1.XIn13.8)     .8338                  

(X_U1.XU2.VIMON1) 195.3E-09           (X_U1.XU3.VIMON1)-31.43E-06               

(X_U1.XU1.VCC_CLP)   14.9540          (X_U1.XU1.VCLP_OP) 93.21E-06              

(X_U1.XU1.VEE_CLP)  -14.9500          (X_U1.XU1.XVN11.3)    0.0000              

(X_U1.XU1.XVN11.4)    0.0000          (X_U1.XU1.XVN11.5)    0.0000              

(X_U1.XU1.XVN11.6)    0.0000          (X_U1.XU1.XVN11.7)     .8338              

(X_U1.XU1.XVN11.8)     .8338          (X_U1.XU1.XVN12.3)    0.0000              

(X_U1.XU1.XVN12.4)    0.0000          (X_U1.XU1.XVN12.5)    0.0000              

(X_U1.XU1.XVN12.6)    0.0000          (X_U1.XU1.XVN12.7)     .8338              

(X_U1.XU1.XVN12.8)     .8338          (X_U1.XU1.CLAMP_OP) 93.21E-06             

(X_U1.XU1.SW_OL_OP) 6.935E-09         (X_U1.XU1.VIMON_OP) 18.25E-06             

(X_U1.XU1.VOUT_S_OP) 10.01E-06        (X_U1.XU1.VSENSE_OP) 93.21E-06            

(X_U1.XU1.CL_CLAMP_OP) 93.21E-06      (X_U1.XU1.CLAW_CLAMP_OP) 93.21E-06    




    VOLTAGE SOURCE CURRENTS
    NAME         CURRENT

    V_VINA       0.000E+00
    V_Vcc       -6.200E-03
    V_Vee       -6.200E-03
    X_U1.V_OSn  -1.270E-21
    X_U1.VB      0.000E+00
    X_U1.VCM_MINn   1.750E-08
    X_U1.VCM_MAXn  -1.250E-08
    X_U1.VCM_MINp   1.750E-08
    X_U1.VCM_MAXp  -1.250E-08
    X_U1.XU1.V_GRP  -1.560E-07
    X_U1.XU1.V_GRN   1.320E-07
    X_U1.XU1.V_ISCP  -3.000E-08
    X_U1.XU1.V_ISCN   2.400E-08
    X_U1.XU1.V_ORN   0.000E+00
    X_U1.XU1.V11   4.735E-09
    X_U1.XU1.V_ORP   0.000E+00
    X_U1.XU1.V12  -4.735E-09
    X_U1.XU1.V4   1.824E-08
    X_U1.XU1.VCM_MIN   1.300E-11
    X_U1.XU1.VCM_MAX  -1.300E-11
    X_U1.XU3.V1  -3.143E-08
    X_U1.XU2.V1   1.884E-10

    TOTAL POWER DISSIPATION   1.86E-01  WATTS


**** 09/29/20 19:14:08 ******* PSpice 17.4.0 (Nov 2018) ******* ID# 0 ********

 ** Profile: "INA848_Test_Circuit-dc_op"  [ C:\Users\a0870489\Documents\DeviceModeling\Development\INA848_SPEC\Release\ina848_test_ci


 ****     OPERATING POINT INFORMATION      TEMPERATURE =   27.000 DEG C


******************************************************************************






**** VOLTAGE-CONTROLLED CURRENT SOURCES


NAME         X_U1.GM2    X_U1.GM1    X_U1.G_VEE_Buffer     
I-SOURCE     2.400E-05   2.400E-05   1.500E+01            

NAME         X_U1.G_VCC_Buffer       X_U1.XU1.GVCCS21      
I-SOURCE    -1.500E+01              -1.495E-02            

NAME         X_U1.XU1.GVCCS20        X_U1.XU1.G11          
I-SOURCE     1.495E-02              -4.730E+00            

NAME         X_U1.XU1.G10            X_U1.XU1.G_PSR        
I-SOURCE     4.730E+00              -8.584E-08            

NAME         X_U1.XU1.GVCCS19        X_U1.XU1.GVCCS18      
I-SOURCE     4.310E-05               4.310E-05            

NAME         X_U1.XU1.GVCCS17        X_U1.XU1.GVCCS16      
I-SOURCE     4.310E-05               4.310E-05            

NAME         X_U1.XU1.GVCCS15        X_U1.XU1.GVCCS8       
I-SOURCE     2.592E-01              -4.274E-05            

NAME         X_U1.XU1.G_4            X_U1.XU1.G_3          
I-SOURCE    -4.274E-05              -4.274E-05            

NAME         X_U1.XU1.G_2            X_U1.XU1.G_1          
I-SOURCE    -4.274E-05              -6.442E-01            

NAME         X_U1.XU1.GVCCS4         X_U1.XU1.GVCCS10      
I-SOURCE    -9.321E-11              -9.321E-11            

NAME         X_U1.XU1.GVCCS9         X_U1.XU1.GVCCS3       
I-SOURCE    -7.408E-03              -7.408E-03            

NAME         X_U1.XU1.G_AOL_ZO       X_U1.XU1.GVCCS2       
I-SOURCE    -7.405E-03              -9.321E-08            

NAME         X_U1.XU1.GVCCS1         X_U1.XU1.GVCCS5       
I-SOURCE    -9.321E-08              -9.321E-08            

NAME         X_U1.XU3.GVCCS9         X_U1.XU3.GVCCS8       
I-SOURCE     2.614E-02               2.614E-02            

NAME         X_U1.XU3.GVCCS7         X_U1.XU3.GVCCS6       
I-SOURCE     2.614E-02               2.612E-02            

NAME         X_U1.XU3.GVCCS5         X_U1.XU3.GVCCS4       
I-SOURCE     2.611E-02               2.611E-02            

NAME         X_U1.XU3.GVCCS3         X_U1.XU3.G_AOL_ZO     
I-SOURCE     2.612E-02               2.613E-02            

NAME         X_U1.XU3.GVCCS2         X_U1.XU3.GVCCS1       
I-SOURCE     2.653E-09               2.653E-06            

NAME         X_U1.XU2.GVCCS9         X_U1.XU2.GVCCS8       
I-SOURCE     2.493E-02               2.493E-02            

NAME         X_U1.XU2.GVCCS7         X_U1.XU2.GVCCS6       
I-SOURCE     2.493E-02               2.492E-02            

NAME         X_U1.XU2.GVCCS5         X_U1.XU2.GVCCS4       
I-SOURCE     2.490E-02               2.490E-02            

NAME         X_U1.XU2.GVCCS3         X_U1.XU2.G_AOL_ZO     
I-SOURCE     2.491E-02               2.492E-02            

NAME         X_U1.XU2.GVCCS2         X_U1.XU2.GVCCS1       
I-SOURCE     2.546E-09               2.546E-06            

NAME         X_U1.XIn13.G1           X_U1.XIn12.G1         
I-SOURCE     0.000E+00               0.000E+00            

NAME         X_U1.XVCM_CLAMPn.G1     X_U1.XVCM_CLAMPp.G1   
I-SOURCE     4.597E-07              -7.185E-09            

NAME         X_U1.XU1.XCLAWN.G1      X_U1.XU1.XCLAWP.G1    
I-SOURCE     5.000E-05               4.590E-05            

NAME         X_U1.XU1.XCLAW_AMP.GVO+           
I-SOURCE     0.000E+00                        

NAME         X_U1.XU1.XCLAW_AMP.GVO-             X_U1.XU1.XCLAW_SRC.G1 
I-SOURCE     0.000E+00                          -4.028E-22            

NAME         X_U1.XU1.XGR_AMP.GVO+   X_U1.XU1.XGR_AMP.GVO- 
I-SOURCE     0.000E+00               0.000E+00            

NAME         X_U1.XU1.XGR_SRC.G1     X_U1.XU1.XCL_AMP.GVO+ 
I-SOURCE     0.000E+00               0.000E+00            

NAME         X_U1.XU1.XCL_AMP.GVO-   X_U1.XU1.XCL_SRC.G1   
I-SOURCE     0.000E+00               0.000E+00            

NAME         X_U1.XU1.XOL_SENSE.GSW+             X_U1.XU1.XIQP.G1      
I-SOURCE     0.000E+00                           1.824E-08            

NAME         X_U1.XU1.XIQN.G1        X_U1.XU1.XVCM_CLAMP_OUTAMP.G1     
I-SOURCE     0.000E+00              -2.059E-03                        

NAME         X_U1.XU1.XVCCS_LIM_ZO.G1          
I-SOURCE     7.407E-03                        

NAME         X_U1.XU1.XVCCS_LIM_2.G1           
I-SOURCE     9.321E-11                        

NAME         X_U1.XU1.XVCCS_LIM_1.G1             X_U1.XU3.XIQP1.G1     
I-SOURCE     9.321E-16                           0.000E+00            

NAME         X_U1.XU3.XIQN1.G1       X_U1.XU3.XVCCS_LIM_2.G1           
I-SOURCE     3.143E-08              -2.653E-09                        

NAME         X_U1.XU3.XVCCS_LIM_1.G1             X_U1.XU2.XIQP1.G1     
I-SOURCE    -2.352E-12                           1.884E-10            

NAME         X_U1.XU2.XIQN1.G1       X_U1.XU2.XVCCS_LIM_2.G1           
I-SOURCE     0.000E+00              -2.546E-09                        

NAME         X_U1.XU2.XVCCS_LIM_1.G1           
I-SOURCE    -2.257E-12                        


**** VOLTAGE-CONTROLLED VOLTAGE SOURCES


NAME         E_E2        E_E1        X_U1.E1     X_U1.XU1.E4           
V-SOURCE     0.000E+00   0.000E+00   6.935E-09   9.321E-05            
I-SOURCE     2.300E-08  -2.500E-08   3.800E-08   0.000E+00            

NAME         X_U1.XU1.E5             X_U1.XIn13.E1         
V-SOURCE     9.999E-06               0.000E+00            
I-SOURCE    -9.999E-18               0.000E+00            

NAME         X_U1.XIn13.E2           X_U1.XIn12.E1         
V-SOURCE     0.000E+00               0.000E+00            
I-SOURCE     0.000E+00               0.000E+00            

NAME         X_U1.XIn12.E2           X_U1.XU1.XVN12.E1     
V-SOURCE     0.000E+00               0.000E+00            
I-SOURCE     0.000E+00               0.000E+00            

NAME         X_U1.XU1.XVN12.E2       X_U1.XU1.XVN12.E3     
V-SOURCE     0.000E+00               0.000E+00            
I-SOURCE     0.000E+00               0.000E+00            

NAME         X_U1.XU1.XVN11.E1       X_U1.XU1.XVN11.E2     
V-SOURCE     0.000E+00               0.000E+00            
I-SOURCE     0.000E+00               0.000E+00            

NAME         X_U1.XU1.XVN11.E3     
V-SOURCE     0.000E+00            
I-SOURCE     0.000E+00            


**** CURRENT-CONTROLLED VOLTAGE SOURCES


NAME         X_U1.XU1.H2             X_U1.XU1.H3           
V-SOURCE    -4.735E-09              -4.735E-09            
I-SOURCE     0.000E+00               0.000E+00            

NAME         X_U1.XU1.H1             X_U1.XU3.H1           
V-SOURCE     1.824E-05              -3.143E-05            
I-SOURCE    -1.824E-17               3.143E-14            

NAME         X_U1.XU2.H1           
V-SOURCE     1.884E-07            
I-SOURCE    -1.884E-16            


**** DIODES


NAME         X_U1.XIn13.D1           X_U1.XIn13.D2         
MODEL        X_U1.XIn13.DVNF         X_U1.XIn13.DVNF       
ID           1.00E-02                1.00E-02             
VD           8.34E-01                8.34E-01             
REQ          2.59E+00                2.59E+00             
CAP          0.00E+00                0.00E+00             

NAME         X_U1.XIn12.D1           X_U1.XIn12.D2         
MODEL        X_U1.XIn12.DVNF         X_U1.XIn12.DVNF       
ID           1.00E-02                1.00E-02             
VD           8.34E-01                8.34E-01             
REQ          2.59E+00                2.59E+00             
CAP          0.00E+00                0.00E+00             

NAME         X_U1.XU1.XVN12.D1       X_U1.XU1.XVN12.D2     
MODEL        X_U1.XU1.XVN12.DVN      X_U1.XU1.XVN12.DVN    
ID           1.00E-02                1.00E-02             
VD           8.34E-01                8.34E-01             
REQ          2.59E+00                2.59E+00             
CAP          0.00E+00                0.00E+00             

NAME         X_U1.XU1.XVN11.D1       X_U1.XU1.XVN11.D2     
MODEL        X_U1.XU1.XVN11.DVN      X_U1.XU1.XVN11.DVN    
ID           1.00E-02                1.00E-02             
VD           8.34E-01                8.34E-01             
REQ          2.59E+00                2.59E+00             
CAP          0.00E+00                0.00E+00             


**** VOLTAGE CONTROLLED SWITCHES


NAME         X_U1.SW1                X_U1.SW2              
MODEL        X_U1.S_VSWITCH_1        X_U1.S_VSWITCH_2      
I LOAD      -1.50E-11               -1.50E-11             
V LOAD      -1.50E+01               -1.50E+01             
R LOAD       1.00E+12                1.00E+12             
V CTRL      -1.50E+01               -1.50E+01             

NAME         X_U1.S11                X_U1.S10              
MODEL        X_U1.S_VSWITCH_3        X_U1.S_VSWITCH_4      
I LOAD      -1.50E-11               -1.50E-11             
V LOAD      -1.50E+01               -1.50E+01             
R LOAD       1.00E+12                1.00E+12             
V CTRL      -1.50E+01               -1.50E+01             

NAME         X_U1.SW3                X_U1.SW4              
MODEL        X_U1.S_VSWITCH_5        X_U1.S_VSWITCH_6      
I LOAD      -1.50E-11               -1.50E-11             
V LOAD      -1.50E+01               -1.50E+01             
R LOAD       1.00E+12                1.00E+12             
V CTRL      -1.50E+01               -1.50E+01             

NAME         X_U1.SW5                X_U1.SW6              
MODEL        X_U1.S_VSWITCH_7        X_U1.S_VSWITCH_8      
I LOAD      -1.50E-11               -1.50E-11             
V LOAD      -1.50E+01               -1.50E+01             
R LOAD       1.00E+12                1.00E+12             
V CTRL      -1.50E+01               -1.50E+01             

NAME         X_U1.S5                 X_U1.S7               
MODEL        X_U1.S_VSWITCH_9        X_U1.S_VSWITCH_10     
I LOAD      -1.50E-11               -1.50E-11             
V LOAD      -1.50E+01               -1.50E+01             
R LOAD       1.00E+12                1.00E+12             
V CTRL      -1.50E+01               -1.50E+01             

NAME         X_U1.S6                 X_U1.S4               
MODEL        X_U1.S_VSWITCH_11       X_U1.S_VSWITCH_12     
I LOAD      -1.50E-11               -1.50E-11             
V LOAD      -1.50E+01               -1.50E+01             
R LOAD       1.00E+12                1.00E+12             
V CTRL      -1.50E+01               -1.50E+01             

NAME         X_U1.XU1.S1             X_U1.XU1.SOR_SWP      
MODEL        X_U1.XU1.S_VSWITCH_1    X_U1.XU1.S_VSWITCH_2  
I LOAD       7.40E-12                4.73E-09             
V LOAD       7.40E-03                4.73E+00             
R LOAD       1.00E+09                1.00E+09             
V CTRL      -1.65E-24               -4.73E+00             

NAME         X_U1.XU1.SOR_SWN      
MODEL        X_U1.XU1.S_VSWITCH_3  
I LOAD       4.73E-09             
V LOAD       4.73E+00             
R LOAD       1.00E+09             
V CTRL      -4.73E+00             

          JOB CONCLUDED

**** 09/29/20 19:14:08 ******* PSpice 17.4.0 (Nov 2018) ******* ID# 0 ********

 ** Profile: "INA848_Test_Circuit-dc_op"  [ C:\Users\a0870489\Documents\DeviceModeling\Development\INA848_SPEC\Release\ina848_test_ci


 ****     JOB STATISTICS SUMMARY


******************************************************************************



  Total job time (using Solver 1)   =         .08
